<routes>
            <vType accel="1.0" decel="4.5" id="standard_car" length="5.0" minGap="2.5" maxSpeed="25" sigma="0.5" />
            <vType id="emergency" vClass="emergency" guiShape="emergency" color="red" accel="2.0" decel="6.0" length="6.0" minGap="2.5" maxSpeed="35" speedFactor="1.5" sigma="0.0" />

            <route id="W_N" edges="W2TL TL2N"/>
            <route id="W_E" edges="W2TL TL2E"/>
            <route id="W_S" edges="W2TL TL2S"/>
            <route id="N_W" edges="N2TL TL2W"/>
            <route id="N_E" edges="N2TL TL2E"/>
            <route id="N_S" edges="N2TL TL2S"/>
            <route id="E_W" edges="E2TL TL2W"/>
            <route id="E_N" edges="E2TL TL2N"/>
            <route id="E_S" edges="E2TL TL2S"/>
            <route id="S_W" edges="S2TL TL2W"/>
            <route id="S_N" edges="S2TL TL2N"/>
            <route id="S_E" edges="S2TL TL2E"/>
    <vehicle id="N_S_0" type="standard_car" route="N_S" depart="102.0" departLane="random" departSpeed="10" />
    <vehicle id="E_W_1" type="standard_car" route="E_W" depart="123.0" departLane="random" departSpeed="10" />
    <vehicle id="S_N_2" type="standard_car" route="S_N" depart="127.0" departLane="random" departSpeed="10" />
    <vehicle id="N_S_3" type="standard_car" route="N_S" depart="128.0" departLane="random" departSpeed="10" />
    <vehicle id="W_E_4" type="standard_car" route="W_E" depart="130.0" departLane="random" departSpeed="10" />
    <vehicle id="W_E_5" type="standard_car" route="W_E" depart="134.0" departLane="random" departSpeed="10" />
    <vehicle id="S_N_6" type="standard_car" route="S_N" depart="137.0" departLane="random" departSpeed="10" />
    <vehicle id="E_W_7" type="standard_car" route="E_W" depart="144.0" departLane="random" departSpeed="10" />
    <vehicle id="W_N_8" type="standard_car" route="W_N" depart="150.0" departLane="random" departSpeed="10" />
    <vehicle id="E_W_9" type="standard_car" route="E_W" depart="157.0" departLane="random" departSpeed="10" />
    <vehicle id="N_S_10" type="standard_car" route="N_S" depart="173.0" departLane="random" departSpeed="10" />
    <vehicle id="N_S_11" type="standard_car" route="N_S" depart="174.0" departLane="random" departSpeed="10" />
    <vehicle id="S_N_12" type="standard_car" route="S_N" depart="178.0" departLane="random" departSpeed="10" />
    <vehicle id="S_N_13" type="standard_car" route="S_N" depart="188.0" departLane="random" departSpeed="10" />
    <vehicle id="N_S_14" type="standard_car" route="N_S" depart="189.0" departLane="random" departSpeed="10" />
    <vehicle id="E_W_15" type="standard_car" route="E_W" depart="190.0" departLane="random" departSpeed="10" />
    <vehicle id="S_N_16" type="standard_car" route="S_N" depart="192.0" departLane="random" departSpeed="10" />
    <vehicle id="W_E_17" type="standard_car" route="W_E" depart="195.0" departLane="random" departSpeed="10" />
    <vehicle id="W_S_18" type="standard_car" route="W_S" depart="199.0" departLane="random" departSpeed="10" />
    <vehicle id="N_S_19" type="standard_car" route="N_S" depart="199.0" departLane="random" departSpeed="10" />
    <vehicle id="S_N_20" type="standard_car" route="S_N" depart="199.0" departLane="random" departSpeed="10" />
    <vehicle id="N_S_21" type="standard_car" route="N_S" depart="206.0" departLane="random" departSpeed="10" />
    <vehicle id="S_E_22" type="standard_car" route="S_E" depart="207.0" departLane="random" departSpeed="10" />
    <vehicle id="E_N_23" type="standard_car" route="E_N" depart="217.0" departLane="random" departSpeed="10" />
    <vehicle id="E_W_24" type="standard_car" route="E_W" depart="218.0" departLane="random" departSpeed="10" />
    <vehicle id="N_S_25" type="standard_car" route="N_S" depart="225.0" departLane="random" departSpeed="10" />
    <vehicle id="N_S_26" type="standard_car" route="N_S" depart="233.0" departLane="random" departSpeed="10" />
    <vehicle id="W_E_27" type="standard_car" route="W_E" depart="242.0" departLane="random" departSpeed="10" />
    <vehicle id="W_E_28" type="standard_car" route="W_E" depart="243.0" departLane="random" departSpeed="10" />
    <vehicle id="S_N_29" type="standard_car" route="S_N" depart="244.0" departLane="random" departSpeed="10" />
    <vehicle id="W_E_30" type="standard_car" route="W_E" depart="244.0" departLane="random" departSpeed="10" />
    <vehicle id="W_N_31" type="standard_car" route="W_N" depart="245.0" departLane="random" departSpeed="10" />
    <vehicle id="E_W_32" type="standard_car" route="E_W" depart="251.0" departLane="random" departSpeed="10" />
    <vehicle id="E_W_33" type="standard_car" route="E_W" depart="254.0" departLane="random" departSpeed="10" />
    <vehicle id="W_E_34" type="standard_car" route="W_E" depart="256.0" departLane="random" departSpeed="10" />
    <vehicle id="E_W_35" type="standard_car" route="E_W" depart="260.0" departLane="random" departSpeed="10" />
    <vehicle id="W_S_36" type="standard_car" route="W_S" depart="262.0" departLane="random" departSpeed="10" />
    <vehicle id="S_N_37" type="standard_car" route="S_N" depart="264.0" departLane="random" departSpeed="10" />
    <vehicle id="W_E_38" type="standard_car" route="W_E" depart="269.0" departLane="random" departSpeed="10" />
    <vehicle id="S_N_39" type="standard_car" route="S_N" depart="271.0" departLane="random" departSpeed="10" />
    <vehicle id="S_N_40" type="standard_car" route="S_N" depart="276.0" departLane="random" departSpeed="10" />
    <vehicle id="N_S_41" type="standard_car" route="N_S" depart="278.0" departLane="random" departSpeed="10" />
    <vehicle id="S_N_42" type="standard_car" route="S_N" depart="282.0" departLane="random" departSpeed="10" />
    <vehicle id="W_N_43" type="standard_car" route="W_N" depart="282.0" departLane="random" departSpeed="10" />
    <vehicle id="N_S_44" type="standard_car" route="N_S" depart="283.0" departLane="random" departSpeed="10" />
    <vehicle id="W_S_45" type="standard_car" route="W_S" depart="284.0" departLane="random" departSpeed="10" />
    <vehicle id="E_W_46" type="standard_car" route="E_W" depart="288.0" departLane="random" departSpeed="10" />
    <vehicle id="S_W_47" type="standard_car" route="S_W" depart="289.0" departLane="random" departSpeed="10" />
    <vehicle id="W_E_48" type="standard_car" route="W_E" depart="289.0" departLane="random" departSpeed="10" />
    <vehicle id="S_N_49" type="standard_car" route="S_N" depart="290.0" departLane="random" departSpeed="10" />
    <vehicle id="N_W_50" type="standard_car" route="N_W" depart="291.0" departLane="random" departSpeed="10" />
    <vehicle id="S_E_51" type="standard_car" route="S_E" depart="293.0" departLane="random" departSpeed="10" />
    <vehicle id="W_S_52" type="standard_car" route="W_S" depart="294.0" departLane="random" departSpeed="10" />
    <vehicle id="E_W_53" type="standard_car" route="E_W" depart="295.0" departLane="random" departSpeed="10" />
    <vehicle id="E_W_54" type="standard_car" route="E_W" depart="295.0" departLane="random" departSpeed="10" />
    <vehicle id="S_N_55" type="standard_car" route="S_N" depart="298.0" departLane="random" departSpeed="10" />
    <vehicle id="S_N_56" type="standard_car" route="S_N" depart="308.0" departLane="random" departSpeed="10" />
    <vehicle id="S_W_57" type="standard_car" route="S_W" depart="310.0" departLane="random" departSpeed="10" />
    <vehicle id="W_E_58" type="standard_car" route="W_E" depart="314.0" departLane="random" departSpeed="10" />
    <vehicle id="N_S_59" type="standard_car" route="N_S" depart="316.0" departLane="random" departSpeed="10" />
    <vehicle id="N_W_60" type="standard_car" route="N_W" depart="317.0" departLane="random" departSpeed="10" />
    <vehicle id="S_N_61" type="standard_car" route="S_N" depart="318.0" departLane="random" departSpeed="10" />
    <vehicle id="S_N_62" type="standard_car" route="S_N" depart="320.0" departLane="random" departSpeed="10" />
    <vehicle id="W_E_63" type="standard_car" route="W_E" depart="320.0" departLane="random" departSpeed="10" />
    <vehicle id="W_E_64" type="standard_car" route="W_E" depart="322.0" departLane="random" departSpeed="10" />
    <vehicle id="W_E_65" type="standard_car" route="W_E" depart="322.0" departLane="random" departSpeed="10" />
    <vehicle id="S_N_66" type="standard_car" route="S_N" depart="327.0" departLane="random" departSpeed="10" />
    <vehicle id="W_S_67" type="standard_car" route="W_S" depart="331.0" departLane="random" departSpeed="10" />
    <vehicle id="S_N_68" type="standard_car" route="S_N" depart="332.0" departLane="random" departSpeed="10" />
    <vehicle id="E_W_69" type="standard_car" route="E_W" depart="335.0" departLane="random" departSpeed="10" />
    <vehicle id="N_S_70" type="standard_car" route="N_S" depart="337.0" departLane="random" departSpeed="10" />
    <vehicle id="N_S_71" type="standard_car" route="N_S" depart="341.0" departLane="random" departSpeed="10" />
    <vehicle id="S_N_72" type="standard_car" route="S_N" depart="344.0" departLane="random" departSpeed="10" />
    <vehicle id="S_N_73" type="standard_car" route="S_N" depart="345.0" departLane="random" departSpeed="10" />
    <vehicle id="S_N_74" type="standard_car" route="S_N" depart="347.0" departLane="random" departSpeed="10" />
    <vehicle id="S_N_75" type="standard_car" route="S_N" depart="348.0" departLane="random" departSpeed="10" />
    <vehicle id="N_S_76" type="standard_car" route="N_S" depart="348.0" departLane="random" departSpeed="10" />
    <vehicle id="E_W_77" type="standard_car" route="E_W" depart="349.0" departLane="random" departSpeed="10" />
    <vehicle id="E_W_78" type="standard_car" route="E_W" depart="350.0" departLane="random" departSpeed="10" />
    <vehicle id="W_N_79" type="standard_car" route="W_N" depart="351.0" departLane="random" departSpeed="10" />
    <vehicle id="E_S_80" type="standard_car" route="E_S" depart="356.0" departLane="random" departSpeed="10" />
    <vehicle id="W_E_81" type="standard_car" route="W_E" depart="360.0" departLane="random" departSpeed="10" />
    <vehicle id="N_S_82" type="standard_car" route="N_S" depart="361.0" departLane="random" departSpeed="10" />
    <vehicle id="E_W_83" type="standard_car" route="E_W" depart="361.0" departLane="random" departSpeed="10" />
    <vehicle id="S_N_84" type="standard_car" route="S_N" depart="362.0" departLane="random" departSpeed="10" />
    <vehicle id="W_S_85" type="standard_car" route="W_S" depart="364.0" departLane="random" departSpeed="10" />
    <vehicle id="N_S_86" type="standard_car" route="N_S" depart="367.0" departLane="random" departSpeed="10" />
    <vehicle id="W_E_87" type="standard_car" route="W_E" depart="367.0" departLane="random" departSpeed="10" />
    <vehicle id="W_E_88" type="standard_car" route="W_E" depart="368.0" departLane="random" departSpeed="10" />
    <vehicle id="S_N_89" type="standard_car" route="S_N" depart="371.0" departLane="random" departSpeed="10" />
    <vehicle id="E_S_90" type="standard_car" route="E_S" depart="371.0" departLane="random" departSpeed="10" />
    <vehicle id="N_S_91" type="standard_car" route="N_S" depart="373.0" departLane="random" departSpeed="10" />
    <vehicle id="W_E_92" type="standard_car" route="W_E" depart="373.0" departLane="random" departSpeed="10" />
    <vehicle id="E_W_93" type="standard_car" route="E_W" depart="378.0" departLane="random" departSpeed="10" />
    <vehicle id="N_S_94" type="standard_car" route="N_S" depart="378.0" departLane="random" departSpeed="10" />
    <vehicle id="W_N_95" type="standard_car" route="W_N" depart="379.0" departLane="random" departSpeed="10" />
    <vehicle id="N_S_96" type="standard_car" route="N_S" depart="387.0" departLane="random" departSpeed="10" />
    <vehicle id="W_E_97" type="standard_car" route="W_E" depart="387.0" departLane="random" departSpeed="10" />
    <vehicle id="E_W_98" type="standard_car" route="E_W" depart="388.0" departLane="random" departSpeed="10" />
    <vehicle id="N_E_99" type="standard_car" route="N_E" depart="388.0" departLane="random" departSpeed="10" />
    <vehicle id="E_W_100" type="standard_car" route="E_W" depart="389.0" departLane="random" departSpeed="10" />
    <vehicle id="S_N_101" type="standard_car" route="S_N" depart="391.0" departLane="random" departSpeed="10" />
    <vehicle id="E_S_102" type="standard_car" route="E_S" depart="393.0" departLane="random" departSpeed="10" />
    <vehicle id="N_S_103" type="standard_car" route="N_S" depart="395.0" departLane="random" departSpeed="10" />
    <vehicle id="W_E_104" type="standard_car" route="W_E" depart="400.0" departLane="random" departSpeed="10" />
    <vehicle id="E_W_105" type="standard_car" route="E_W" depart="414.0" departLane="random" departSpeed="10" />
    <vehicle id="W_E_106" type="standard_car" route="W_E" depart="414.0" departLane="random" departSpeed="10" />
    <vehicle id="S_N_107" type="standard_car" route="S_N" depart="415.0" departLane="random" departSpeed="10" />
    <vehicle id="W_E_108" type="standard_car" route="W_E" depart="415.0" departLane="random" departSpeed="10" />
    <vehicle id="E_S_109" type="standard_car" route="E_S" depart="416.0" departLane="random" departSpeed="10" />
    <vehicle id="N_W_110" type="standard_car" route="N_W" depart="427.0" departLane="random" departSpeed="10" />
    <vehicle id="W_E_111" type="standard_car" route="W_E" depart="433.0" departLane="random" departSpeed="10" />
    <vehicle id="E_W_112" type="standard_car" route="E_W" depart="434.0" departLane="random" departSpeed="10" />
    <vehicle id="S_N_113" type="standard_car" route="S_N" depart="436.0" departLane="random" departSpeed="10" />
    <vehicle id="N_S_114" type="standard_car" route="N_S" depart="436.0" departLane="random" departSpeed="10" />
    <vehicle id="S_N_115" type="standard_car" route="S_N" depart="438.0" departLane="random" departSpeed="10" />
    <vehicle id="S_N_116" type="standard_car" route="S_N" depart="439.0" departLane="random" departSpeed="10" />
    <vehicle id="S_N_117" type="standard_car" route="S_N" depart="439.0" departLane="random" departSpeed="10" />
    <vehicle id="S_N_118" type="standard_car" route="S_N" depart="440.0" departLane="random" departSpeed="10" />
    <vehicle id="S_W_119" type="standard_car" route="S_W" depart="441.0" departLane="random" departSpeed="10" />
    <vehicle id="N_S_120" type="standard_car" route="N_S" depart="442.0" departLane="random" departSpeed="10" />
    <vehicle id="W_E_121" type="standard_car" route="W_E" depart="448.0" departLane="random" departSpeed="10" />
    <vehicle id="E_W_122" type="standard_car" route="E_W" depart="449.0" departLane="random" departSpeed="10" />
    <vehicle id="N_E_123" type="standard_car" route="N_E" depart="449.0" departLane="random" departSpeed="10" />
    <vehicle id="S_W_124" type="standard_car" route="S_W" depart="452.0" departLane="random" departSpeed="10" />
    <vehicle id="N_E_125" type="standard_car" route="N_E" depart="453.0" departLane="random" departSpeed="10" />
    <vehicle id="E_W_126" type="standard_car" route="E_W" depart="456.0" departLane="random" departSpeed="10" />
    <vehicle id="E_W_127" type="standard_car" route="E_W" depart="461.0" departLane="random" departSpeed="10" />
    <vehicle id="N_S_128" type="standard_car" route="N_S" depart="461.0" departLane="random" departSpeed="10" />
    <vehicle id="E_W_129" type="standard_car" route="E_W" depart="464.0" departLane="random" departSpeed="10" />
    <vehicle id="E_W_130" type="standard_car" route="E_W" depart="466.0" departLane="random" departSpeed="10" />
    <vehicle id="W_E_131" type="standard_car" route="W_E" depart="467.0" departLane="random" departSpeed="10" />
    <vehicle id="N_S_132" type="standard_car" route="N_S" depart="468.0" departLane="random" departSpeed="10" />
    <vehicle id="N_S_133" type="standard_car" route="N_S" depart="469.0" departLane="random" departSpeed="10" />
    <vehicle id="S_N_134" type="standard_car" route="S_N" depart="472.0" departLane="random" departSpeed="10" />
    <vehicle id="S_N_135" type="standard_car" route="S_N" depart="473.0" departLane="random" departSpeed="10" />
    <vehicle id="E_W_136" type="standard_car" route="E_W" depart="474.0" departLane="random" departSpeed="10" />
    <vehicle id="E_S_137" type="standard_car" route="E_S" depart="475.0" departLane="random" departSpeed="10" />
    <vehicle id="N_W_138" type="standard_car" route="N_W" depart="476.0" departLane="random" departSpeed="10" />
    <vehicle id="N_W_139" type="standard_car" route="N_W" depart="477.0" departLane="random" departSpeed="10" />
    <vehicle id="W_N_140" type="standard_car" route="W_N" depart="478.0" departLane="random" departSpeed="10" />
    <vehicle id="E_N_141" type="standard_car" route="E_N" depart="481.0" departLane="random" departSpeed="10" />
    <vehicle id="S_W_142" type="standard_car" route="S_W" depart="483.0" departLane="random" departSpeed="10" />
    <vehicle id="S_N_143" type="standard_car" route="S_N" depart="483.0" departLane="random" departSpeed="10" />
    <vehicle id="N_E_144" type="standard_car" route="N_E" depart="487.0" departLane="random" departSpeed="10" />
    <vehicle id="S_N_145" type="standard_car" route="S_N" depart="489.0" departLane="random" departSpeed="10" />
    <vehicle id="E_W_146" type="standard_car" route="E_W" depart="489.0" departLane="random" departSpeed="10" />
    <vehicle id="S_N_147" type="standard_car" route="S_N" depart="492.0" departLane="random" departSpeed="10" />
    <vehicle id="E_W_148" type="standard_car" route="E_W" depart="493.0" departLane="random" departSpeed="10" />
    <vehicle id="W_E_149" type="standard_car" route="W_E" depart="494.0" departLane="random" departSpeed="10" />
    <vehicle id="W_E_150" type="standard_car" route="W_E" depart="495.0" departLane="random" departSpeed="10" />
    <vehicle id="E_N_151" type="standard_car" route="E_N" depart="496.0" departLane="random" departSpeed="10" />
    <vehicle id="N_S_152" type="standard_car" route="N_S" depart="497.0" departLane="random" departSpeed="10" />
    <vehicle id="W_E_153" type="standard_car" route="W_E" depart="498.0" departLane="random" departSpeed="10" />
    <vehicle id="S_N_154" type="standard_car" route="S_N" depart="499.0" departLane="random" departSpeed="10" />
    <vehicle id="W_S_155" type="standard_car" route="W_S" depart="501.0" departLane="random" departSpeed="10" />
    <vehicle id="E_W_156" type="standard_car" route="E_W" depart="503.0" departLane="random" departSpeed="10" />
    <vehicle id="S_N_157" type="standard_car" route="S_N" depart="506.0" departLane="random" departSpeed="10" />
    <vehicle id="N_S_158" type="standard_car" route="N_S" depart="507.0" departLane="random" departSpeed="10" />
    <vehicle id="E_W_159" type="standard_car" route="E_W" depart="509.0" departLane="random" departSpeed="10" />
    <vehicle id="E_S_160" type="standard_car" route="E_S" depart="509.0" departLane="random" departSpeed="10" />
    <vehicle id="N_S_161" type="standard_car" route="N_S" depart="510.0" departLane="random" departSpeed="10" />
    <vehicle id="W_S_162" type="standard_car" route="W_S" depart="512.0" departLane="random" departSpeed="10" />
    <vehicle id="W_E_163" type="standard_car" route="W_E" depart="515.0" departLane="random" departSpeed="10" />
    <vehicle id="S_N_164" type="standard_car" route="S_N" depart="515.0" departLane="random" departSpeed="10" />
    <vehicle id="S_N_165" type="standard_car" route="S_N" depart="518.0" departLane="random" departSpeed="10" />
    <vehicle id="W_E_166" type="standard_car" route="W_E" depart="520.0" departLane="random" departSpeed="10" />
    <vehicle id="W_E_167" type="standard_car" route="W_E" depart="521.0" departLane="random" departSpeed="10" />
    <vehicle id="W_E_168" type="standard_car" route="W_E" depart="522.0" departLane="random" departSpeed="10" />
    <vehicle id="S_N_169" type="standard_car" route="S_N" depart="523.0" departLane="random" departSpeed="10" />
    <vehicle id="W_E_170" type="standard_car" route="W_E" depart="523.0" departLane="random" departSpeed="10" />
    <vehicle id="S_N_171" type="standard_car" route="S_N" depart="524.0" departLane="random" departSpeed="10" />
    <vehicle id="S_N_172" type="standard_car" route="S_N" depart="525.0" departLane="random" departSpeed="10" />
    <vehicle id="N_S_173" type="standard_car" route="N_S" depart="526.0" departLane="random" departSpeed="10" />
    <vehicle id="E_W_174" type="standard_car" route="E_W" depart="527.0" departLane="random" departSpeed="10" />
    <vehicle id="E_W_175" type="standard_car" route="E_W" depart="528.0" departLane="random" departSpeed="10" />
    <vehicle id="N_S_176" type="standard_car" route="N_S" depart="529.0" departLane="random" departSpeed="10" />
    <vehicle id="W_E_177" type="standard_car" route="W_E" depart="532.0" departLane="random" departSpeed="10" />
    <vehicle id="S_N_178" type="standard_car" route="S_N" depart="534.0" departLane="random" departSpeed="10" />
    <vehicle id="S_N_179" type="standard_car" route="S_N" depart="534.0" departLane="random" departSpeed="10" />
    <vehicle id="E_W_180" type="standard_car" route="E_W" depart="536.0" departLane="random" departSpeed="10" />
    <vehicle id="N_W_181" type="standard_car" route="N_W" depart="536.0" departLane="random" departSpeed="10" />
    <vehicle id="E_W_182" type="standard_car" route="E_W" depart="538.0" departLane="random" departSpeed="10" />
    <vehicle id="N_S_183" type="standard_car" route="N_S" depart="538.0" departLane="random" departSpeed="10" />
    <vehicle id="W_E_184" type="standard_car" route="W_E" depart="538.0" departLane="random" departSpeed="10" />
    <vehicle id="E_W_185" type="standard_car" route="E_W" depart="539.0" departLane="random" departSpeed="10" />
    <vehicle id="W_E_186" type="standard_car" route="W_E" depart="543.0" departLane="random" departSpeed="10" />
    <vehicle id="W_E_187" type="standard_car" route="W_E" depart="543.0" departLane="random" departSpeed="10" />
    <vehicle id="E_W_188" type="standard_car" route="E_W" depart="545.0" departLane="random" departSpeed="10" />
    <vehicle id="N_W_189" type="standard_car" route="N_W" depart="546.0" departLane="random" departSpeed="10" />
    <vehicle id="W_E_190" type="standard_car" route="W_E" depart="548.0" departLane="random" departSpeed="10" />
    <vehicle id="W_E_191" type="standard_car" route="W_E" depart="548.0" departLane="random" departSpeed="10" />
    <vehicle id="S_N_192" type="standard_car" route="S_N" depart="549.0" departLane="random" departSpeed="10" />
    <vehicle id="S_N_193" type="standard_car" route="S_N" depart="550.0" departLane="random" departSpeed="10" />
    <vehicle id="S_N_194" type="standard_car" route="S_N" depart="551.0" departLane="random" departSpeed="10" />
    <vehicle id="W_E_195" type="standard_car" route="W_E" depart="554.0" departLane="random" departSpeed="10" />
    <vehicle id="E_W_196" type="standard_car" route="E_W" depart="557.0" departLane="random" departSpeed="10" />
    <vehicle id="S_N_197" type="standard_car" route="S_N" depart="557.0" departLane="random" departSpeed="10" />
    <vehicle id="S_N_198" type="standard_car" route="S_N" depart="558.0" departLane="random" departSpeed="10" />
    <vehicle id="N_S_199" type="standard_car" route="N_S" depart="558.0" departLane="random" departSpeed="10" />
    <vehicle id="W_N_200" type="standard_car" route="W_N" depart="562.0" departLane="random" departSpeed="10" />
    <vehicle id="E_W_201" type="standard_car" route="E_W" depart="563.0" departLane="random" departSpeed="10" />
    <vehicle id="E_W_202" type="standard_car" route="E_W" depart="565.0" departLane="random" departSpeed="10" />
    <vehicle id="S_N_203" type="standard_car" route="S_N" depart="565.0" departLane="random" departSpeed="10" />
    <vehicle id="W_E_204" type="standard_car" route="W_E" depart="565.0" departLane="random" departSpeed="10" />
    <vehicle id="E_N_205" type="standard_car" route="E_N" depart="567.0" departLane="random" departSpeed="10" />
    <vehicle id="N_S_206" type="standard_car" route="N_S" depart="570.0" departLane="random" departSpeed="10" />
    <vehicle id="N_S_207" type="standard_car" route="N_S" depart="571.0" departLane="random" departSpeed="10" />
    <vehicle id="N_S_208" type="standard_car" route="N_S" depart="574.0" departLane="random" departSpeed="10" />
    <vehicle id="N_S_209" type="standard_car" route="N_S" depart="576.0" departLane="random" departSpeed="10" />
    <vehicle id="E_W_210" type="standard_car" route="E_W" depart="577.0" departLane="random" departSpeed="10" />
    <vehicle id="S_N_211" type="standard_car" route="S_N" depart="578.0" departLane="random" departSpeed="10" />
    <vehicle id="S_N_212" type="standard_car" route="S_N" depart="578.0" departLane="random" departSpeed="10" />
    <vehicle id="E_N_213" type="standard_car" route="E_N" depart="579.0" departLane="random" departSpeed="10" />
    <vehicle id="S_N_214" type="standard_car" route="S_N" depart="582.0" departLane="random" departSpeed="10" />
    <vehicle id="W_E_215" type="standard_car" route="W_E" depart="583.0" departLane="random" departSpeed="10" />
    <vehicle id="S_W_216" type="standard_car" route="S_W" depart="587.0" departLane="random" departSpeed="10" />
    <vehicle id="E_N_217" type="standard_car" route="E_N" depart="587.0" departLane="random" departSpeed="10" />
    <vehicle id="N_S_218" type="standard_car" route="N_S" depart="588.0" departLane="random" departSpeed="10" />
    <vehicle id="E_W_219" type="standard_car" route="E_W" depart="589.0" departLane="random" departSpeed="10" />
    <vehicle id="N_S_220" type="standard_car" route="N_S" depart="589.0" departLane="random" departSpeed="10" />
    <vehicle id="S_N_221" type="standard_car" route="S_N" depart="590.0" departLane="random" departSpeed="10" />
    <vehicle id="E_W_222" type="standard_car" route="E_W" depart="592.0" departLane="random" departSpeed="10" />
    <vehicle id="W_E_223" type="standard_car" route="W_E" depart="594.0" departLane="random" departSpeed="10" />
    <vehicle id="E_W_224" type="standard_car" route="E_W" depart="597.0" departLane="random" departSpeed="10" />
    <vehicle id="N_S_225" type="standard_car" route="N_S" depart="597.0" departLane="random" departSpeed="10" />
    <vehicle id="S_N_226" type="standard_car" route="S_N" depart="598.0" departLane="random" departSpeed="10" />
    <vehicle id="N_E_227" type="standard_car" route="N_E" depart="599.0" departLane="random" departSpeed="10" />
    <vehicle id="N_S_228" type="standard_car" route="N_S" depart="602.0" departLane="random" departSpeed="10" />
    <vehicle id="E_W_229" type="standard_car" route="E_W" depart="604.0" departLane="random" departSpeed="10" />
    <vehicle id="W_E_230" type="standard_car" route="W_E" depart="604.0" departLane="random" departSpeed="10" />
    <vehicle id="N_S_231" type="standard_car" route="N_S" depart="605.0" departLane="random" departSpeed="10" />
    <vehicle id="E_W_232" type="standard_car" route="E_W" depart="605.0" departLane="random" departSpeed="10" />
    <vehicle id="N_S_233" type="standard_car" route="N_S" depart="606.0" departLane="random" departSpeed="10" />
    <vehicle id="W_N_234" type="standard_car" route="W_N" depart="608.0" departLane="random" departSpeed="10" />
    <vehicle id="N_S_235" type="standard_car" route="N_S" depart="614.0" departLane="random" departSpeed="10" />
    <vehicle id="N_S_236" type="standard_car" route="N_S" depart="615.0" departLane="random" departSpeed="10" />
    <vehicle id="W_E_237" type="standard_car" route="W_E" depart="616.0" departLane="random" departSpeed="10" />
    <vehicle id="S_N_238" type="standard_car" route="S_N" depart="616.0" departLane="random" departSpeed="10" />
    <vehicle id="W_S_239" type="standard_car" route="W_S" depart="618.0" departLane="random" departSpeed="10" />
    <vehicle id="E_W_240" type="standard_car" route="E_W" depart="620.0" departLane="random" departSpeed="10" />
    <vehicle id="N_S_241" type="standard_car" route="N_S" depart="620.0" departLane="random" departSpeed="10" />
    <vehicle id="W_E_242" type="standard_car" route="W_E" depart="624.0" departLane="random" departSpeed="10" />
    <vehicle id="W_E_243" type="standard_car" route="W_E" depart="625.0" departLane="random" departSpeed="10" />
    <vehicle id="W_E_244" type="standard_car" route="W_E" depart="625.0" departLane="random" departSpeed="10" />
    <vehicle id="W_E_245" type="standard_car" route="W_E" depart="629.0" departLane="random" departSpeed="10" />
    <vehicle id="W_E_246" type="standard_car" route="W_E" depart="632.0" departLane="random" departSpeed="10" />
    <vehicle id="W_E_247" type="standard_car" route="W_E" depart="632.0" departLane="random" departSpeed="10" />
    <vehicle id="E_W_248" type="standard_car" route="E_W" depart="633.0" departLane="random" departSpeed="10" />
    <vehicle id="W_E_249" type="standard_car" route="W_E" depart="635.0" departLane="random" departSpeed="10" />
    <vehicle id="W_E_250" type="standard_car" route="W_E" depart="635.0" departLane="random" departSpeed="10" />
    <vehicle id="E_S_251" type="standard_car" route="E_S" depart="636.0" departLane="random" departSpeed="10" />
    <vehicle id="E_W_252" type="standard_car" route="E_W" depart="636.0" departLane="random" departSpeed="10" />
    <vehicle id="N_S_253" type="standard_car" route="N_S" depart="637.0" departLane="random" departSpeed="10" />
    <vehicle id="S_W_254" type="standard_car" route="S_W" depart="638.0" departLane="random" departSpeed="10" />
    <vehicle id="S_W_255" type="standard_car" route="S_W" depart="639.0" departLane="random" departSpeed="10" />
    <vehicle id="S_N_256" type="standard_car" route="S_N" depart="640.0" departLane="random" departSpeed="10" />
    <vehicle id="N_S_257" type="standard_car" route="N_S" depart="642.0" departLane="random" departSpeed="10" />