<?xml version="1.0" encoding="UTF-8"?>

<!-- generated on 2026-01-20 01:16:58 by Eclipse SUMO netconvert Version 1.18.0
<configuration xmlns:xsi="http://www.w3.org/2001/XMLSchema-instance" xsi:noNamespaceSchemaLocation="http://sumo.dlr.de/xsd/netconvertConfiguration.xsd">

    <input>
        <osm-files value="C:\Users\91948\OneDrive\Desktop\Traffic-Light-Optimization-With-Reinforcement-Learning\backend\sumo\networks\bangalore_hosmat\bangalore_hosmat.osm"/>
    </input>

    <output>
        <output-file value="C:\Users\91948\OneDrive\Desktop\Traffic-Light-Optimization-With-Reinforcement-Learning\backend\sumo\networks\bangalore_hosmat\bangalore_hosmat.net.xml"/>
    </output>

    <projection>
        <proj.utm value="true"/>
    </projection>

    <processing>
        <geometry.remove value="true"/>
    </processing>

    <tls_building>
        <tls.discard-simple value="true"/>
        <tls.join value="true"/>
        <tls.guess-signals value="true"/>
        <tls.default-type value="actuated"/>
    </tls_building>

    <ramp_guessing>
        <ramps.guess value="true"/>
    </ramp_guessing>

    <junctions>
        <junctions.join value="true"/>
    </junctions>

</configuration>
-->

<net version="1.16" junctionCornerDetail="5" limitTurnSpeed="5.50" xmlns:xsi="http://www.w3.org/2001/XMLSchema-instance" xsi:noNamespaceSchemaLocation="http://sumo.dlr.de/xsd/net_file.xsd">

    <location netOffset="-783045.80,-1434623.41" convBoundary="0.00,0.00,475.06,467.21" origBoundary="77.608968,12.964185,77.613317,12.968414" projParameter="+proj=utm +zone=43 +ellps=WGS84 +datum=WGS84 +units=m +no_defs"/>

    <type id="highway.living_street|highway.residential" priority="3" numLanes="1" speed="13.89" disallow="tram rail_urban rail rail_electric rail_fast ship" oneway="0"/>
    <type id="highway.primary|highway.residential" priority="12" numLanes="2" speed="27.78" disallow="tram rail_urban rail rail_electric rail_fast ship" oneway="0"/>
    <type id="highway.residential" priority="3" numLanes="1" speed="13.89" disallow="tram rail_urban rail rail_electric rail_fast ship" oneway="0"/>
    <type id="highway.residential|highway.secondary" priority="11" numLanes="1" speed="27.78" disallow="tram rail_urban rail rail_electric rail_fast ship" oneway="0"/>
    <type id="highway.residential|highway.tertiary" priority="10" numLanes="1" speed="22.22" disallow="tram rail_urban rail rail_electric rail_fast ship" oneway="0"/>

    <edge id=":1_0" function="internal">
        <lane id=":1_0_0" index="0" disallow="tram rail_urban rail rail_electric rail_fast ship" speed="6.94" length="3.98" shape="69.03,295.24 67.88,295.02 67.06,295.00 66.27,295.20 65.20,295.67"/>
    </edge>
    <edge id=":1_1" function="internal">
        <lane id=":1_1_0" index="0" disallow="tram rail_urban rail rail_electric rail_fast ship" speed="6.94" length="7.93" shape="63.85,292.77 65.79,291.40 67.01,289.98 68.28,289.02 70.37,288.98"/>
    </edge>
    <edge id=":10_0" function="internal">
        <lane id=":10_0_0" index="0" disallow="tram rail_urban rail rail_electric rail_fast ship" speed="13.89" length="14.38" shape="423.75,94.83 412.49,85.88"/>
    </edge>
    <edge id=":10_1" function="internal">
        <lane id=":10_1_0" index="0" disallow="tram rail_urban rail rail_electric rail_fast ship" speed="13.89" length="14.38" shape="423.75,94.83 412.49,85.88"/>
    </edge>
    <edge id=":10_2" function="internal">
        <lane id=":10_2_0" index="0" disallow="tram rail_urban rail rail_electric rail_fast ship" speed="9.70" length="3.42" shape="423.75,94.83 421.57,92.20"/>
    </edge>
    <edge id=":10_3" function="internal">
        <lane id=":10_3_0" index="0" disallow="tram rail_urban rail rail_electric rail_fast ship" speed="9.70" length="3.42" shape="423.75,94.83 421.57,92.20"/>
    </edge>
    <edge id=":10_4" function="internal">
        <lane id=":10_4_0" index="0" disallow="tram rail_urban rail rail_electric rail_fast ship" speed="3.24" length="1.55" shape="423.75,94.83 424.77,93.66"/>
    </edge>
    <edge id=":10_5" function="internal">
        <lane id=":10_5_0" index="0" disallow="tram rail_urban rail rail_electric rail_fast ship" speed="3.65" length="1.44" shape="423.75,94.83 423.37,93.44"/>
    </edge>
    <edge id=":10_36" function="internal">
        <lane id=":10_36_0" index="0" disallow="tram rail_urban rail rail_electric rail_fast ship" speed="9.70" length="11.40" shape="421.57,92.20 420.45,89.03 420.37,85.33 421.33,81.10"/>
    </edge>
    <edge id=":10_37" function="internal">
        <lane id=":10_37_0" index="0" disallow="tram rail_urban rail rail_electric rail_fast ship" speed="9.70" length="11.40" shape="421.57,92.20 420.45,89.03 420.37,85.33 421.33,81.10"/>
    </edge>
    <edge id=":10_38" function="internal">
        <lane id=":10_38_0" index="0" disallow="tram rail_urban rail rail_electric rail_fast ship" speed="3.24" length="1.65" shape="424.77,93.66 425.86,92.43"/>
    </edge>
    <edge id=":10_39" function="internal">
        <lane id=":10_39_0" index="0" disallow="tram rail_urban rail rail_electric rail_fast ship" speed="3.65" length="3.23" shape="423.37,93.44 423.60,92.57 424.43,92.24 425.86,92.43"/>
    </edge>
    <edge id=":10_6" function="internal">
        <lane id=":10_6_0" index="0" disallow="tram rail_urban rail rail_electric rail_fast ship" speed="8.45" length="11.06" shape="424.37,82.11 423.60,85.37 423.59,88.18 424.34,90.53 425.86,92.43"/>
    </edge>
    <edge id=":10_7" function="internal">
        <lane id=":10_7_0" index="0" disallow="tram rail_urban rail rail_electric rail_fast ship" speed="8.45" length="11.06" shape="424.37,82.11 423.60,85.37 423.59,88.18 424.34,90.53 425.86,92.43"/>
    </edge>
    <edge id=":10_8" function="internal">
        <lane id=":10_8_0" index="0" disallow="tram rail_urban rail rail_electric rail_fast ship" speed="7.55" length="15.56" shape="424.37,82.11 422.38,86.12 419.73,88.09 416.44,88.01 412.49,85.88"/>
    </edge>
    <edge id=":10_9" function="internal">
        <lane id=":10_9_0" index="0" disallow="tram rail_urban rail rail_electric rail_fast ship" speed="7.55" length="15.56" shape="424.37,82.11 422.38,86.12 419.73,88.09 416.44,88.01 412.49,85.88"/>
    </edge>
    <edge id=":10_10" function="internal">
        <lane id=":10_10_0" index="0" disallow="tram rail_urban rail rail_electric rail_fast ship" speed="3.24" length="3.20" shape="424.37,82.11 421.33,81.10"/>
    </edge>
    <edge id=":10_11" function="internal">
        <lane id=":10_11_0" index="0" disallow="tram rail_urban rail rail_electric rail_fast ship" speed="3.65" length="4.67" shape="424.37,82.11 423.23,82.99 422.35,83.12 421.72,82.49 421.33,81.10"/>
    </edge>
    <edge id=":10_12" function="internal">
        <lane id=":10_12_0" index="0" disallow="tram rail_urban rail rail_electric rail_fast ship" speed="8.45" length="11.06" shape="424.37,82.11 423.60,85.37 423.59,88.18 424.34,90.53 425.86,92.43"/>
    </edge>
    <edge id=":10_13" function="internal">
        <lane id=":10_13_0" index="0" disallow="tram rail_urban rail rail_electric rail_fast ship" speed="8.45" length="11.06" shape="424.37,82.11 423.60,85.37 423.59,88.18 424.34,90.53 425.86,92.43"/>
    </edge>
    <edge id=":10_14" function="internal">
        <lane id=":10_14_0" index="0" disallow="tram rail_urban rail rail_electric rail_fast ship" speed="7.55" length="15.56" shape="424.37,82.11 422.38,86.12 419.73,88.09 416.44,88.01 412.49,85.88"/>
    </edge>
    <edge id=":10_15" function="internal">
        <lane id=":10_15_0" index="0" disallow="tram rail_urban rail rail_electric rail_fast ship" speed="7.55" length="15.56" shape="424.37,82.11 422.38,86.12 419.73,88.09 416.44,88.01 412.49,85.88"/>
    </edge>
    <edge id=":10_16" function="internal">
        <lane id=":10_16_0" index="0" disallow="tram rail_urban rail rail_electric rail_fast ship" speed="3.24" length="3.20" shape="424.37,82.11 421.33,81.10"/>
    </edge>
    <edge id=":10_17" function="internal">
        <lane id=":10_17_0" index="0" disallow="tram rail_urban rail rail_electric rail_fast ship" speed="3.65" length="4.67" shape="424.37,82.11 423.23,82.99 422.35,83.12 421.72,82.49 421.33,81.10"/>
    </edge>
    <edge id=":10_18" function="internal">
        <lane id=":10_18_0" index="0" disallow="tram rail_urban rail rail_electric rail_fast ship" speed="5.93" length="9.10" shape="414.39,83.31 416.69,84.55 418.62,84.60 420.17,83.45 421.33,81.10"/>
    </edge>
    <edge id=":10_19" function="internal">
        <lane id=":10_19_0" index="0" disallow="tram rail_urban rail rail_electric rail_fast ship" speed="5.93" length="9.10" shape="414.39,83.31 416.69,84.55 418.62,84.60 420.17,83.45 421.33,81.10"/>
    </edge>
    <edge id=":10_20" function="internal">
        <lane id=":10_20_0" index="0" disallow="tram rail_urban rail rail_electric rail_fast ship" speed="13.89" length="14.65" shape="414.39,83.31 425.86,92.43"/>
    </edge>
    <edge id=":10_21" function="internal">
        <lane id=":10_21_0" index="0" disallow="tram rail_urban rail rail_electric rail_fast ship" speed="13.89" length="14.65" shape="414.39,83.31 425.86,92.43"/>
    </edge>
    <edge id=":10_22" function="internal">
        <lane id=":10_22_0" index="0" disallow="tram rail_urban rail rail_electric rail_fast ship" speed="3.24" length="1.63" shape="414.39,83.31 413.42,84.62"/>
    </edge>
    <edge id=":10_23" function="internal">
        <lane id=":10_23_0" index="0" disallow="tram rail_urban rail rail_electric rail_fast ship" speed="3.65" length="1.44" shape="414.39,83.31 414.88,84.66"/>
    </edge>
    <edge id=":10_40" function="internal">
        <lane id=":10_40_0" index="0" disallow="tram rail_urban rail rail_electric rail_fast ship" speed="3.24" length="1.57" shape="413.42,84.62 412.49,85.88"/>
    </edge>
    <edge id=":10_41" function="internal">
        <lane id=":10_41_0" index="0" disallow="tram rail_urban rail rail_electric rail_fast ship" speed="3.65" length="3.23" shape="414.88,84.66 414.73,85.55 413.93,85.95 412.49,85.88"/>
    </edge>
    <edge id=":10_24" function="internal">
        <lane id=":10_24_0" index="0" disallow="tram rail_urban rail rail_electric rail_fast ship" speed="5.93" length="9.10" shape="414.39,83.31 416.69,84.55 418.62,84.60 420.17,83.45 421.33,81.10"/>
    </edge>
    <edge id=":10_25" function="internal">
        <lane id=":10_25_0" index="0" disallow="tram rail_urban rail rail_electric rail_fast ship" speed="5.93" length="9.10" shape="414.39,83.31 416.69,84.55 418.62,84.60 420.17,83.45 421.33,81.10"/>
    </edge>
    <edge id=":10_26" function="internal">
        <lane id=":10_26_0" index="0" disallow="tram rail_urban rail rail_electric rail_fast ship" speed="13.89" length="14.65" shape="414.39,83.31 425.86,92.43"/>
    </edge>
    <edge id=":10_27" function="internal">
        <lane id=":10_27_0" index="0" disallow="tram rail_urban rail rail_electric rail_fast ship" speed="13.89" length="14.65" shape="414.39,83.31 425.86,92.43"/>
    </edge>
    <edge id=":10_28" function="internal">
        <lane id=":10_28_0" index="0" disallow="tram rail_urban rail rail_electric rail_fast ship" speed="3.24" length="3.20" shape="414.39,83.31 412.49,85.88"/>
    </edge>
    <edge id=":10_29" function="internal">
        <lane id=":10_29_0" index="0" disallow="tram rail_urban rail rail_electric rail_fast ship" speed="3.65" length="4.67" shape="414.39,83.31 414.88,84.66 414.73,85.55 413.93,85.95 412.49,85.88"/>
    </edge>
    <edge id=":10_30" function="internal">
        <lane id=":10_30_0" index="0" disallow="tram rail_urban rail rail_electric rail_fast ship" speed="13.89" length="14.38" shape="423.75,94.83 412.49,85.88"/>
    </edge>
    <edge id=":10_31" function="internal">
        <lane id=":10_31_0" index="0" disallow="tram rail_urban rail rail_electric rail_fast ship" speed="13.89" length="14.38" shape="423.75,94.83 412.49,85.88"/>
    </edge>
    <edge id=":10_32" function="internal">
        <lane id=":10_32_0" index="0" disallow="tram rail_urban rail rail_electric rail_fast ship" speed="9.70" length="14.81" shape="423.75,94.83 421.57,92.20 420.45,89.03 420.37,85.33 421.33,81.10"/>
    </edge>
    <edge id=":10_33" function="internal">
        <lane id=":10_33_0" index="0" disallow="tram rail_urban rail rail_electric rail_fast ship" speed="9.70" length="14.81" shape="423.75,94.83 421.57,92.20 420.45,89.03 420.37,85.33 421.33,81.10"/>
    </edge>
    <edge id=":10_34" function="internal">
        <lane id=":10_34_0" index="0" disallow="tram rail_urban rail rail_electric rail_fast ship" speed="3.24" length="3.20" shape="423.75,94.83 425.86,92.43"/>
    </edge>
    <edge id=":10_35" function="internal">
        <lane id=":10_35_0" index="0" disallow="tram rail_urban rail rail_electric rail_fast ship" speed="3.65" length="4.67" shape="423.75,94.83 423.37,93.44 423.60,92.57 424.43,92.24 425.86,92.43"/>
    </edge>
    <edge id=":11_0" function="internal">
        <lane id=":11_0_0" index="0" disallow="tram rail_urban rail rail_electric rail_fast ship" speed="7.71" length="10.20" shape="441.21,47.09 438.81,47.41 436.80,48.52 435.18,50.44 433.96,53.15"/>
    </edge>
    <edge id=":11_1" function="internal">
        <lane id=":11_1_0" index="0" disallow="tram rail_urban rail rail_electric rail_fast ship" speed="7.71" length="10.20" shape="441.21,47.09 438.81,47.41 436.80,48.52 435.18,50.44 433.96,53.15"/>
    </edge>
    <edge id=":11_2" function="internal">
        <lane id=":11_2_0" index="0" disallow="tram rail_urban rail rail_electric rail_fast ship" speed="13.89" length="14.32" shape="441.21,47.09 437.57,46.91 434.07,46.60 430.57,46.17 426.97,45.62"/>
    </edge>
    <edge id=":11_3" function="internal">
        <lane id=":11_3_0" index="0" disallow="tram rail_urban rail rail_electric rail_fast ship" speed="13.89" length="14.32" shape="441.21,47.09 437.57,46.91 434.07,46.60 430.57,46.17 426.97,45.62"/>
    </edge>
    <edge id=":11_4" function="internal">
        <lane id=":11_4_0" index="0" disallow="tram rail_urban rail rail_electric rail_fast ship" speed="3.24" length="1.62" shape="441.21,47.09 441.26,45.47"/>
    </edge>
    <edge id=":11_5" function="internal">
        <lane id=":11_5_0" index="0" disallow="tram rail_urban rail rail_electric rail_fast ship" speed="3.65" length="1.44" shape="441.21,47.09 440.03,46.25"/>
    </edge>
    <edge id=":11_36" function="internal">
        <lane id=":11_36_0" index="0" disallow="tram rail_urban rail rail_electric rail_fast ship" speed="3.24" length="1.58" shape="441.26,45.47 441.31,43.89"/>
    </edge>
    <edge id=":11_37" function="internal">
        <lane id=":11_37_0" index="0" disallow="tram rail_urban rail rail_electric rail_fast ship" speed="3.65" length="3.23" shape="440.03,46.25 439.66,45.44 440.08,44.65 441.31,43.89"/>
    </edge>
    <edge id=":11_6" function="internal">
        <lane id=":11_6_0" index="0" disallow="tram rail_urban rail rail_electric rail_fast ship" speed="7.71" length="10.20" shape="441.21,47.09 438.81,47.41 436.80,48.52 435.18,50.44 433.96,53.15"/>
    </edge>
    <edge id=":11_7" function="internal">
        <lane id=":11_7_0" index="0" disallow="tram rail_urban rail rail_electric rail_fast ship" speed="7.71" length="10.20" shape="441.21,47.09 438.81,47.41 436.80,48.52 435.18,50.44 433.96,53.15"/>
    </edge>
    <edge id=":11_8" function="internal">
        <lane id=":11_8_0" index="0" disallow="tram rail_urban rail rail_electric rail_fast ship" speed="13.89" length="14.32" shape="441.21,47.09 437.57,46.91 434.07,46.60 430.57,46.17 426.97,45.62"/>
    </edge>
    <edge id=":11_9" function="internal">
        <lane id=":11_9_0" index="0" disallow="tram rail_urban rail rail_electric rail_fast ship" speed="13.89" length="14.32" shape="441.21,47.09 437.57,46.91 434.07,46.60 430.57,46.17 426.97,45.62"/>
    </edge>
    <edge id=":11_10" function="internal">
        <lane id=":11_10_0" index="0" disallow="tram rail_urban rail rail_electric rail_fast ship" speed="3.24" length="3.20" shape="441.21,47.09 441.31,43.89"/>
    </edge>
    <edge id=":11_11" function="internal">
        <lane id=":11_11_0" index="0" disallow="tram rail_urban rail rail_electric rail_fast ship" speed="3.65" length="4.67" shape="441.21,47.09 440.03,46.25 439.66,45.44 440.08,44.65 441.31,43.89"/>
    </edge>
    <edge id=":11_12" function="internal">
        <lane id=":11_12_0" index="0" disallow="tram rail_urban rail rail_electric rail_fast ship" speed="13.89" length="13.90" shape="427.49,42.46 431.03,43.00 434.37,43.42 437.73,43.72 441.31,43.89"/>
    </edge>
    <edge id=":11_13" function="internal">
        <lane id=":11_13_0" index="0" disallow="tram rail_urban rail rail_electric rail_fast ship" speed="13.89" length="13.90" shape="427.49,42.46 431.03,43.00 434.37,43.42 437.73,43.72 441.31,43.89"/>
    </edge>
    <edge id=":11_14" function="internal">
        <lane id=":11_14_0" index="0" disallow="tram rail_urban rail rail_electric rail_fast ship" speed="7.75" length="4.16" shape="427.49,42.46 431.45,43.71"/>
    </edge>
    <edge id=":11_15" function="internal">
        <lane id=":11_15_0" index="0" disallow="tram rail_urban rail rail_electric rail_fast ship" speed="7.75" length="4.16" shape="427.49,42.46 431.45,43.71"/>
    </edge>
    <edge id=":11_16" function="internal">
        <lane id=":11_16_0" index="0" disallow="tram rail_urban rail rail_electric rail_fast ship" speed="3.24" length="1.59" shape="427.49,42.46 427.23,44.03"/>
    </edge>
    <edge id=":11_17" function="internal">
        <lane id=":11_17_0" index="0" disallow="tram rail_urban rail rail_electric rail_fast ship" speed="3.65" length="1.44" shape="427.49,42.46 428.54,43.44"/>
    </edge>
    <edge id=":11_38" function="internal">
        <lane id=":11_38_0" index="0" disallow="tram rail_urban rail rail_electric rail_fast ship" speed="7.75" length="10.67" shape="431.45,43.71 433.85,45.91 434.69,49.06 433.96,53.15"/>
    </edge>
    <edge id=":11_39" function="internal">
        <lane id=":11_39_0" index="0" disallow="tram rail_urban rail rail_electric rail_fast ship" speed="7.75" length="10.67" shape="431.45,43.71 433.85,45.91 434.69,49.06 433.96,53.15"/>
    </edge>
    <edge id=":11_40" function="internal">
        <lane id=":11_40_0" index="0" disallow="tram rail_urban rail rail_electric rail_fast ship" speed="3.24" length="1.61" shape="427.23,44.03 426.97,45.62"/>
    </edge>
    <edge id=":11_41" function="internal">
        <lane id=":11_41_0" index="0" disallow="tram rail_urban rail rail_electric rail_fast ship" speed="3.65" length="3.23" shape="428.54,43.44 428.81,44.30 428.28,45.02 426.97,45.62"/>
    </edge>
    <edge id=":11_18" function="internal">
        <lane id=":11_18_0" index="0" disallow="tram rail_urban rail rail_electric rail_fast ship" speed="13.89" length="13.90" shape="427.49,42.46 431.03,43.00 434.37,43.42 437.73,43.72 441.31,43.89"/>
    </edge>
    <edge id=":11_19" function="internal">
        <lane id=":11_19_0" index="0" disallow="tram rail_urban rail rail_electric rail_fast ship" speed="13.89" length="13.90" shape="427.49,42.46 431.03,43.00 434.37,43.42 437.73,43.72 441.31,43.89"/>
    </edge>
    <edge id=":11_20" function="internal">
        <lane id=":11_20_0" index="0" disallow="tram rail_urban rail rail_electric rail_fast ship" speed="7.75" length="14.82" shape="427.49,42.46 431.45,43.71 433.85,45.91 434.69,49.06 433.96,53.15"/>
    </edge>
    <edge id=":11_21" function="internal">
        <lane id=":11_21_0" index="0" disallow="tram rail_urban rail rail_electric rail_fast ship" speed="7.75" length="14.82" shape="427.49,42.46 431.45,43.71 433.85,45.91 434.69,49.06 433.96,53.15"/>
    </edge>
    <edge id=":11_22" function="internal">
        <lane id=":11_22_0" index="0" disallow="tram rail_urban rail rail_electric rail_fast ship" speed="3.24" length="3.20" shape="427.49,42.46 426.97,45.62"/>
    </edge>
    <edge id=":11_23" function="internal">
        <lane id=":11_23_0" index="0" disallow="tram rail_urban rail rail_electric rail_fast ship" speed="3.65" length="4.67" shape="427.49,42.46 428.54,43.44 428.81,44.30 428.28,45.02 426.97,45.62"/>
    </edge>
    <edge id=":11_24" function="internal">
        <lane id=":11_24_0" index="0" disallow="tram rail_urban rail rail_electric rail_fast ship" speed="6.19" length="9.05" shape="430.92,52.14 431.37,49.65 430.86,47.72 429.39,46.38 426.97,45.62"/>
    </edge>
    <edge id=":11_25" function="internal">
        <lane id=":11_25_0" index="0" disallow="tram rail_urban rail rail_electric rail_fast ship" speed="6.19" length="9.05" shape="430.92,52.14 431.37,49.65 430.86,47.72 429.39,46.38 426.97,45.62"/>
    </edge>
    <edge id=":11_26" function="internal">
        <lane id=":11_26_0" index="0" disallow="tram rail_urban rail rail_electric rail_fast ship" speed="9.04" length="14.33" shape="430.92,52.14 432.62,48.45 434.92,45.84 437.82,44.32 441.31,43.89"/>
    </edge>
    <edge id=":11_27" function="internal">
        <lane id=":11_27_0" index="0" disallow="tram rail_urban rail rail_electric rail_fast ship" speed="9.04" length="14.33" shape="430.92,52.14 432.62,48.45 434.92,45.84 437.82,44.32 441.31,43.89"/>
    </edge>
    <edge id=":11_28" function="internal">
        <lane id=":11_28_0" index="0" disallow="tram rail_urban rail rail_electric rail_fast ship" speed="3.24" length="3.20" shape="430.92,52.14 433.96,53.15"/>
    </edge>
    <edge id=":11_29" function="internal">
        <lane id=":11_29_0" index="0" disallow="tram rail_urban rail rail_electric rail_fast ship" speed="3.65" length="4.67" shape="430.92,52.14 432.06,51.26 432.94,51.13 433.58,51.76 433.96,53.15"/>
    </edge>
    <edge id=":11_30" function="internal">
        <lane id=":11_30_0" index="0" disallow="tram rail_urban rail rail_electric rail_fast ship" speed="6.19" length="9.05" shape="430.92,52.14 431.37,49.65 430.86,47.72 429.39,46.38 426.97,45.62"/>
    </edge>
    <edge id=":11_31" function="internal">
        <lane id=":11_31_0" index="0" disallow="tram rail_urban rail rail_electric rail_fast ship" speed="6.19" length="9.05" shape="430.92,52.14 431.37,49.65 430.86,47.72 429.39,46.38 426.97,45.62"/>
    </edge>
    <edge id=":11_32" function="internal">
        <lane id=":11_32_0" index="0" disallow="tram rail_urban rail rail_electric rail_fast ship" speed="9.04" length="14.33" shape="430.92,52.14 432.62,48.45 434.92,45.84 437.82,44.32 441.31,43.89"/>
    </edge>
    <edge id=":11_33" function="internal">
        <lane id=":11_33_0" index="0" disallow="tram rail_urban rail rail_electric rail_fast ship" speed="9.04" length="14.33" shape="430.92,52.14 432.62,48.45 434.92,45.84 437.82,44.32 441.31,43.89"/>
    </edge>
    <edge id=":11_34" function="internal">
        <lane id=":11_34_0" index="0" disallow="tram rail_urban rail rail_electric rail_fast ship" speed="3.24" length="3.20" shape="430.92,52.14 433.96,53.15"/>
    </edge>
    <edge id=":11_35" function="internal">
        <lane id=":11_35_0" index="0" disallow="tram rail_urban rail rail_electric rail_fast ship" speed="3.65" length="4.67" shape="430.92,52.14 432.06,51.26 432.94,51.13 433.58,51.76 433.96,53.15"/>
    </edge>
    <edge id=":12_0" function="internal">
        <lane id=":12_0_0" index="0" disallow="tram rail_urban rail rail_electric rail_fast ship" speed="8.08" length="11.92" shape="229.14,376.47 227.84,379.37 225.92,381.38 223.37,382.51 220.20,382.76"/>
    </edge>
    <edge id=":12_1" function="internal">
        <lane id=":12_1_0" index="0" disallow="tram rail_urban rail rail_electric rail_fast ship" speed="8.08" length="11.92" shape="229.14,376.47 227.84,379.37 225.92,381.38 223.37,382.51 220.20,382.76"/>
    </edge>
    <edge id=":12_2" function="internal">
        <lane id=":12_2_0" index="0" disallow="tram rail_urban rail rail_electric rail_fast ship" speed="3.65" length="4.67" shape="229.14,376.47 228.03,377.39 227.15,377.55 226.49,376.94 226.07,375.56"/>
    </edge>
    <edge id=":12_3" function="internal">
        <lane id=":12_3_0" index="0" disallow="tram rail_urban rail rail_electric rail_fast ship" speed="6.57" length="7.59" shape="220.38,379.56 222.40,379.41 224.02,378.69 225.24,377.40 226.07,375.56"/>
    </edge>
    <edge id=":12_4" function="internal">
        <lane id=":12_4_0" index="0" disallow="tram rail_urban rail rail_electric rail_fast ship" speed="3.24" length="3.20" shape="220.38,379.56 220.20,382.76"/>
    </edge>
    <edge id=":12_5" function="internal">
        <lane id=":12_5_0" index="0" disallow="tram rail_urban rail rail_electric rail_fast ship" speed="3.65" length="4.67" shape="220.38,379.56 221.54,380.43 221.89,381.25 221.45,382.03 220.20,382.76"/>
    </edge>
    <edge id=":12_6" function="internal">
        <lane id=":12_6_0" index="0" disallow="tram rail_urban rail rail_electric rail_fast ship" speed="6.57" length="7.59" shape="220.38,379.56 222.40,379.41 224.02,378.69 225.24,377.40 226.07,375.56"/>
    </edge>
    <edge id=":12_7" function="internal">
        <lane id=":12_7_0" index="0" disallow="tram rail_urban rail rail_electric rail_fast ship" speed="3.24" length="3.20" shape="220.38,379.56 220.20,382.76"/>
    </edge>
    <edge id=":12_8" function="internal">
        <lane id=":12_8_0" index="0" disallow="tram rail_urban rail rail_electric rail_fast ship" speed="3.65" length="4.67" shape="220.38,379.56 221.54,380.43 221.89,381.25 221.45,382.03 220.20,382.76"/>
    </edge>
    <edge id=":13_0" function="internal">
        <lane id=":13_0_0" index="0" disallow="tram rail_urban rail rail_electric rail_fast ship" speed="3.65" length="4.67" shape="182.11,-0.98 183.48,-1.44 184.36,-1.27 184.74,-0.46 184.64,0.98"/>
    </edge>
    <edge id=":14_0" function="internal">
        <lane id=":14_0_0" index="0" disallow="tram rail_urban rail rail_electric rail_fast ship" speed="13.89" length="14.73" shape="457.56,47.34 442.84,47.14"/>
    </edge>
    <edge id=":14_1" function="internal">
        <lane id=":14_1_0" index="0" disallow="tram rail_urban rail rail_electric rail_fast ship" speed="13.89" length="14.73" shape="457.56,47.34 442.84,47.14"/>
    </edge>
    <edge id=":14_2" function="internal">
        <lane id=":14_2_0" index="0" disallow="tram rail_urban rail rail_electric rail_fast ship" speed="7.63" length="4.45" shape="457.56,47.34 453.28,46.73 453.18,46.66"/>
    </edge>
    <edge id=":14_3" function="internal">
        <lane id=":14_3_0" index="0" disallow="tram rail_urban rail rail_electric rail_fast ship" speed="7.63" length="4.45" shape="457.56,47.34 453.28,46.73 453.18,46.66"/>
    </edge>
    <edge id=":14_4" function="internal">
        <lane id=":14_4_0" index="0" disallow="tram rail_urban rail rail_electric rail_fast ship" speed="3.24" length="1.61" shape="457.56,47.34 457.56,45.73"/>
    </edge>
    <edge id=":14_5" function="internal">
        <lane id=":14_5_0" index="0" disallow="tram rail_urban rail rail_electric rail_fast ship" speed="3.65" length="1.44" shape="457.56,47.34 456.36,46.54"/>
    </edge>
    <edge id=":14_36" function="internal">
        <lane id=":14_36_0" index="0" disallow="tram rail_urban rail rail_electric rail_fast ship" speed="7.63" length="10.78" shape="453.18,46.66 450.57,44.88 449.43,41.80 449.88,37.49"/>
    </edge>
    <edge id=":14_37" function="internal">
        <lane id=":14_37_0" index="0" disallow="tram rail_urban rail rail_electric rail_fast ship" speed="7.63" length="10.78" shape="453.18,46.66 450.57,44.88 449.43,41.80 449.88,37.49"/>
    </edge>
    <edge id=":14_38" function="internal">
        <lane id=":14_38_0" index="0" disallow="tram rail_urban rail rail_electric rail_fast ship" speed="3.24" length="1.59" shape="457.56,45.73 457.56,44.14"/>
    </edge>
    <edge id=":14_39" function="internal">
        <lane id=":14_39_0" index="0" disallow="tram rail_urban rail rail_electric rail_fast ship" speed="3.65" length="3.23" shape="456.36,46.54 455.96,45.74 456.36,44.94 457.56,44.14"/>
    </edge>
    <edge id=":14_6" function="internal">
        <lane id=":14_6_0" index="0" disallow="tram rail_urban rail rail_electric rail_fast ship" speed="6.04" length="9.07" shape="452.99,38.27 452.72,40.84 453.39,42.67 455.01,43.77 457.56,44.14"/>
    </edge>
    <edge id=":14_7" function="internal">
        <lane id=":14_7_0" index="0" disallow="tram rail_urban rail rail_electric rail_fast ship" speed="6.04" length="9.07" shape="452.99,38.27 452.72,40.84 453.39,42.67 455.01,43.77 457.56,44.14"/>
    </edge>
    <edge id=":14_8" function="internal">
        <lane id=":14_8_0" index="0" disallow="tram rail_urban rail rail_electric rail_fast ship" speed="8.86" length="14.72" shape="452.99,38.27 451.49,42.24 449.31,45.04 446.42,46.68 442.84,47.14"/>
    </edge>
    <edge id=":14_9" function="internal">
        <lane id=":14_9_0" index="0" disallow="tram rail_urban rail rail_electric rail_fast ship" speed="8.86" length="14.72" shape="452.99,38.27 451.49,42.24 449.31,45.04 446.42,46.68 442.84,47.14"/>
    </edge>
    <edge id=":14_10" function="internal">
        <lane id=":14_10_0" index="0" disallow="tram rail_urban rail rail_electric rail_fast ship" speed="3.24" length="3.20" shape="452.99,38.27 449.88,37.49"/>
    </edge>
    <edge id=":14_11" function="internal">
        <lane id=":14_11_0" index="0" disallow="tram rail_urban rail rail_electric rail_fast ship" speed="3.65" length="4.67" shape="452.99,38.27 451.92,39.24 451.04,39.43 450.37,38.85 449.88,37.49"/>
    </edge>
    <edge id=":14_12" function="internal">
        <lane id=":14_12_0" index="0" disallow="tram rail_urban rail rail_electric rail_fast ship" speed="6.04" length="9.07" shape="452.99,38.27 452.72,40.84 453.39,42.67 455.01,43.77 457.56,44.14"/>
    </edge>
    <edge id=":14_13" function="internal">
        <lane id=":14_13_0" index="0" disallow="tram rail_urban rail rail_electric rail_fast ship" speed="6.04" length="9.07" shape="452.99,38.27 452.72,40.84 453.39,42.67 455.01,43.77 457.56,44.14"/>
    </edge>
    <edge id=":14_14" function="internal">