<?xml version="1.0" encoding="UTF-8"?>

<!-- generated on 2026-01-20 12:09:09 by Eclipse SUMO netconvert Version 1.18.0
<configuration xmlns:xsi="http://www.w3.org/2001/XMLSchema-instance" xsi:noNamespaceSchemaLocation="http://sumo.dlr.de/xsd/netconvertConfiguration.xsd">

    <input>
        <osm-files value="C:\Users\91948\OneDrive\Desktop\latest\backend\sumo\networks\bangalore_silk_board\bangalore_silk_board.osm"/>
    </input>

    <output>
        <output-file value="C:\Users\91948\OneDrive\Desktop\latest\backend\sumo\networks\bangalore_silk_board\bangalore_silk_board.net.xml"/>
    </output>

    <projection>
        <proj.utm value="true"/>
    </projection>

    <tls_building>
        <tls.guess value="true"/>
        <tls.guess.threshold value="2"/>
        <tls.join value="true"/>
        <tls.default-type value="actuated"/>
    </tls_building>

    <junctions>
        <junctions.join value="true"/>
        <junctions.corner-detail value="8"/>
    </junctions>

</configuration>
-->

<net version="1.16" junctionCornerDetail="8" limitTurnSpeed="5.50" xmlns:xsi="http://www.w3.org/2001/XMLSchema-instance" xsi:noNamespaceSchemaLocation="http://sumo.dlr.de/xsd/net_file.xsd">

    <location netOffset="-784287.12,-1429086.01" convBoundary="0.00,0.00,806.43,665.77" origBoundary="77.619910,12.914001,77.627281,12.920067" projParameter="+proj=utm +zone=43 +ellps=WGS84 +datum=WGS84 +units=m +no_defs"/>

    <type id="highway.residential" priority="3" numLanes="1" speed="13.89" disallow="tram rail_urban rail rail_electric rail_fast ship" oneway="0"/>
    <type id="highway.tertiary" priority="10" numLanes="1" speed="22.22" disallow="tram rail_urban rail rail_electric rail_fast ship" oneway="0"/>
    <type id="highway.trunk" priority="13" numLanes="2" speed="27.78" disallow="pedestrian bicycle tram rail_urban rail rail_electric rail_fast ship" oneway="0"/>
    <type id="highway.trunk_link" priority="8" numLanes="1" speed="22.22" disallow="pedestrian bicycle tram rail_urban rail rail_electric rail_fast ship" oneway="0"/>

    <edge id=":1_0" function="internal">
        <lane id=":1_0_0" index="0" disallow="tram rail_urban rail rail_electric rail_fast ship" speed="3.65" length="4.67" shape="538.03,386.62 539.11,387.58 539.40,388.42 538.89,389.16 537.59,389.79"/>
    </edge>
    <edge id=":10_0" function="internal">
        <lane id=":10_0_0" index="0" disallow="tram rail_urban rail rail_electric rail_fast ship" speed="11.11" length="16.42" shape="693.67,337.43 677.80,341.62"/>
    </edge>
    <edge id=":10_1" function="internal">
        <lane id=":10_1_0" index="0" disallow="tram rail_urban rail rail_electric rail_fast ship" speed="7.38" length="5.70" shape="693.67,337.43 688.03,338.26"/>
    </edge>
    <edge id=":10_2" function="internal">
        <lane id=":10_2_0" index="0" disallow="tram rail_urban rail rail_electric rail_fast ship" speed="3.65" length="1.44" shape="693.67,337.43 692.30,336.98"/>
    </edge>
    <edge id=":10_9" function="internal">
        <lane id=":10_9_0" index="0" disallow="tram rail_urban rail rail_electric rail_fast ship" speed="7.38" length="12.56" shape="688.03,338.26 684.84,337.00 684.12,333.65 685.85,328.22"/>
    </edge>
    <edge id=":10_10" function="internal">
        <lane id=":10_10_0" index="0" disallow="tram rail_urban rail rail_electric rail_fast ship" speed="3.65" length="3.23" shape="692.30,336.98 691.71,336.31 691.88,335.43 692.83,334.35"/>
    </edge>
    <edge id=":10_3" function="internal">
        <lane id=":10_3_0" index="0" disallow="tram rail_urban rail rail_electric rail_fast ship" speed="5.52" length="9.50" shape="688.76,329.55 687.86,332.38 688.24,334.12 689.89,334.78 692.83,334.35"/>
    </edge>
    <edge id=":10_4" function="internal">
        <lane id=":10_4_0" index="0" disallow="tram rail_urban rail rail_electric rail_fast ship" speed="11.11" length="16.80" shape="688.76,329.55 686.27,334.26 683.61,337.84 680.78,340.30 677.80,341.62"/>
    </edge>
    <edge id=":10_5" function="internal">
        <lane id=":10_5_0" index="0" disallow="tram rail_urban rail rail_electric rail_fast ship" speed="3.65" length="1.44" shape="688.76,329.55 687.53,330.31"/>
    </edge>
    <edge id=":10_11" function="internal">
        <lane id=":10_11_0" index="0" disallow="tram rail_urban rail rail_electric rail_fast ship" speed="3.65" length="3.23" shape="687.53,330.31 686.64,330.34 686.08,329.64 685.85,328.22"/>
    </edge>
    <edge id=":10_6" function="internal">
        <lane id=":10_6_0" index="0" disallow="tram rail_urban rail rail_electric rail_fast ship" speed="11.11" length="13.93" shape="677.03,338.51 679.32,337.44 681.55,335.37 683.73,332.29 685.85,328.22"/>
    </edge>
    <edge id=":10_7" function="internal">
        <lane id=":10_7_0" index="0" disallow="tram rail_urban rail rail_electric rail_fast ship" speed="11.11" length="16.34" shape="677.03,338.51 692.83,334.35"/>
    </edge>
    <edge id=":10_8" function="internal">
        <lane id=":10_8_0" index="0" disallow="tram rail_urban rail rail_electric rail_fast ship" speed="3.65" length="1.44" shape="677.03,338.51 678.39,339.00"/>
    </edge>
    <edge id=":10_12" function="internal">
        <lane id=":10_12_0" index="0" disallow="tram rail_urban rail rail_electric rail_fast ship" speed="3.65" length="3.23" shape="678.39,339.00 678.97,339.68 678.77,340.55 677.80,341.62"/>
    </edge>
    <edge id=":11_0" function="internal">
        <lane id=":11_0_0" index="0" disallow="tram rail_urban rail rail_electric rail_fast ship" speed="11.11" length="17.79" shape="727.34,328.22 710.19,332.94"/>
    </edge>
    <edge id=":11_1" function="internal">
        <lane id=":11_1_0" index="0" disallow="tram rail_urban rail rail_electric rail_fast ship" speed="7.49" length="6.47" shape="727.34,328.22 720.97,329.28"/>
    </edge>
    <edge id=":11_2" function="internal">
        <lane id=":11_2_0" index="0" disallow="tram rail_urban rail rail_electric rail_fast ship" speed="3.65" length="1.44" shape="727.34,328.22 725.98,327.77"/>
    </edge>
    <edge id=":11_9" function="internal">
        <lane id=":11_9_0" index="0" disallow="tram rail_urban rail rail_electric rail_fast ship" speed="7.49" length="13.88" shape="720.97,329.28 720.81,329.31 717.48,328.08 717.36,324.53 720.44,318.67"/>
    </edge>
    <edge id=":11_10" function="internal">
        <lane id=":11_10_0" index="0" disallow="tram rail_urban rail rail_electric rail_fast ship" speed="3.65" length="3.23" shape="725.98,327.77 725.38,327.10 725.55,326.23 726.49,325.14"/>
    </edge>
    <edge id=":11_3" function="internal">
        <lane id=":11_3_0" index="0" disallow="tram rail_urban rail rail_electric rail_fast ship" speed="5.46" length="10.00" shape="723.10,320.44 721.59,323.32 721.65,325.07 723.28,325.67 726.49,325.14"/>
    </edge>
    <edge id=":11_4" function="internal">
        <lane id=":11_4_0" index="0" disallow="tram rail_urban rail rail_electric rail_fast ship" speed="11.11" length="18.24" shape="723.10,320.44 720.59,323.97 717.41,327.76 713.85,331.02 710.19,332.94"/>
    </edge>
    <edge id=":11_5" function="internal">
        <lane id=":11_5_0" index="0" disallow="tram rail_urban rail rail_electric rail_fast ship" speed="3.65" length="1.44" shape="723.10,320.44 721.77,321.00"/>
    </edge>
    <edge id=":11_11" function="internal">
        <lane id=":11_11_0" index="0" disallow="tram rail_urban rail rail_electric rail_fast ship" speed="3.65" length="3.23" shape="721.77,321.00 720.88,320.89 720.44,320.11 720.44,318.67"/>
    </edge>
    <edge id=":11_6" function="internal">
        <lane id=":11_6_0" index="0" disallow="tram rail_urban rail rail_electric rail_fast ship" speed="11.11" length="16.05" shape="709.35,329.85 712.72,328.13 715.66,325.33 718.21,321.99 720.44,318.67"/>
    </edge>
    <edge id=":11_7" function="internal">
        <lane id=":11_7_0" index="0" disallow="tram rail_urban rail rail_electric rail_fast ship" speed="11.11" length="17.78" shape="709.35,329.85 726.49,325.14"/>
    </edge>
    <edge id=":11_8" function="internal">
        <lane id=":11_8_0" index="0" disallow="tram rail_urban rail rail_electric rail_fast ship" speed="3.65" length="1.44" shape="709.35,329.85 710.71,330.31"/>
    </edge>
    <edge id=":11_12" function="internal">
        <lane id=":11_12_0" index="0" disallow="tram rail_urban rail rail_electric rail_fast ship" speed="3.65" length="3.23" shape="710.71,330.31 711.31,330.98 711.13,331.85 710.19,332.94"/>
    </edge>
    <edge id=":12_0" function="internal">
        <lane id=":12_0_0" index="0" disallow="tram rail_urban rail rail_electric rail_fast ship" speed="6.08" length="7.80" shape="792.31,151.63 793.93,153.03 794.70,154.61 794.63,156.37 793.72,158.31"/>
    </edge>
    <edge id=":12_1" function="internal">
        <lane id=":12_1_0" index="0" disallow="tram rail_urban rail rail_electric rail_fast ship" speed="3.90" length="2.60" shape="791.05,156.55 791.35,155.90 791.37,155.32 791.11,154.79 790.58,154.32"/>
    </edge>
    <edge id=":13_0" function="internal">
        <lane id=":13_0_0" index="0" disallow="tram rail_urban rail rail_electric rail_fast ship" speed="6.51" length="8.98" shape="724.43,111.69 722.19,110.67 720.16,110.60 718.34,111.48 716.71,113.33"/>
    </edge>
    <edge id=":13_1" function="internal">
        <lane id=":13_1_0" index="0" disallow="tram rail_urban rail rail_electric rail_fast ship" speed="8.07" length="14.08" shape="724.43,111.69 721.51,109.17 720.05,106.32 720.06,103.12 721.53,99.60"/>
    </edge>
    <edge id=":13_2" function="internal">
        <lane id=":13_2_0" index="0" disallow="tram rail_urban rail rail_electric rail_fast ship" speed="3.65" length="1.44" shape="724.43,111.69 723.85,110.37"/>
    </edge>
    <edge id=":13_9" function="internal">
        <lane id=":13_9_0" index="0" disallow="tram rail_urban rail rail_electric rail_fast ship" speed="3.65" length="3.23" shape="723.85,110.37 723.95,109.48 724.72,109.03 726.16,109.00"/>
    </edge>
    <edge id=":13_3" function="internal">
        <lane id=":13_3_0" index="0" disallow="tram rail_urban rail rail_electric rail_fast ship" speed="6.59" length="9.05" shape="724.28,101.23 723.34,103.50 723.34,105.54 724.28,107.38 726.16,109.00"/>
    </edge>
    <edge id=":13_4" function="internal">
        <lane id=":13_4_0" index="0" disallow="tram rail_urban rail rail_electric rail_fast ship" speed="11.11" length="14.26" shape="724.28,101.23 716.71,113.33"/>
    </edge>
    <edge id=":13_5" function="internal">
        <lane id=":13_5_0" index="0" disallow="tram rail_urban rail rail_electric rail_fast ship" speed="3.65" length="1.44" shape="724.28,101.23 722.97,101.86"/>
    </edge>
    <edge id=":13_10" function="internal">
        <lane id=":13_10_0" index="0" disallow="tram rail_urban rail rail_electric rail_fast ship" speed="3.65" length="3.23" shape="722.97,101.86 722.08,101.79 721.60,101.04 721.53,99.60"/>
    </edge>
    <edge id=":13_6" function="internal">
        <lane id=":13_6_0" index="0" disallow="tram rail_urban rail rail_electric rail_fast ship" speed="11.11" length="14.13" shape="714.04,111.57 721.53,99.60"/>
    </edge>
    <edge id=":13_7" function="internal">
        <lane id=":13_7_0" index="0" disallow="tram rail_urban rail rail_electric rail_fast ship" speed="8.00" length="3.86" shape="714.04,111.57 716.59,108.68"/>
    </edge>
    <edge id=":13_8" function="internal">
        <lane id=":13_8_0" index="0" disallow="tram rail_urban rail rail_electric rail_fast ship" speed="3.65" length="1.44" shape="714.04,111.57 715.36,111.01"/>
    </edge>
    <edge id=":13_11" function="internal">
        <lane id=":13_11_0" index="0" disallow="tram rail_urban rail rail_electric rail_fast ship" speed="8.00" length="10.25" shape="716.59,108.68 719.46,107.28 722.65,107.39 726.16,109.00"/>
    </edge>
    <edge id=":13_12" function="internal">
        <lane id=":13_12_0" index="0" disallow="tram rail_urban rail rail_electric rail_fast ship" speed="3.65" length="3.23" shape="715.36,111.01 716.25,111.11 716.70,111.89 716.71,113.33"/>
    </edge>
    <edge id=":14_0" function="internal">
        <lane id=":14_0_0" index="0" disallow="tram rail_urban rail rail_electric rail_fast ship" speed="11.11" length="14.60" shape="598.04,306.02 593.23,306.91 589.44,308.12 586.67,309.65 584.91,311.51"/>
    </edge>
    <edge id=":14_1" function="internal">
        <lane id=":14_1_0" index="0" disallow="tram rail_urban rail rail_electric rail_fast ship" speed="7.41" length="19.02" shape="598.04,306.02 592.00,306.15 588.96,304.48 588.92,301.01 591.88,295.75"/>
    </edge>
    <edge id=":14_2" function="internal">
        <lane id=":14_2_0" index="0" disallow="tram rail_urban rail rail_electric rail_fast ship" speed="3.65" length="1.44" shape="598.04,306.02 596.74,305.39"/>
    </edge>
    <edge id=":14_9" function="internal">
        <lane id=":14_9_0" index="0" disallow="tram rail_urban rail rail_electric rail_fast ship" speed="3.65" length="3.23" shape="596.74,305.39 596.24,304.65 596.52,303.80 597.60,302.85"/>
    </edge>
    <edge id=":14_3" function="internal">
        <lane id=":14_3_0" index="0" disallow="tram rail_urban rail rail_electric rail_fast ship" speed="5.48" length="9.67" shape="594.47,297.62 592.97,300.30 592.99,302.07 594.53,302.91 597.60,302.85"/>
    </edge>
    <edge id=":14_4" function="internal">
        <lane id=":14_4_0" index="0" disallow="tram rail_urban rail rail_electric rail_fast ship" speed="11.11" length="16.86" shape="594.47,297.62 584.91,311.51"/>
    </edge>
    <edge id=":14_5" function="internal">
        <lane id=":14_5_0" index="0" disallow="tram rail_urban rail rail_electric rail_fast ship" speed="3.65" length="1.44" shape="594.47,297.62 593.12,298.13"/>
    </edge>
    <edge id=":14_10" function="internal">
        <lane id=":14_10_0" index="0" disallow="tram rail_urban rail rail_electric rail_fast ship" speed="3.65" length="3.23" shape="593.12,298.13 592.24,297.98 591.83,297.19 591.88,295.75"/>
    </edge>
    <edge id=":14_6" function="internal">
        <lane id=":14_6_0" index="0" disallow="tram rail_urban rail rail_electric rail_fast ship" speed="11.11" length="17.10" shape="582.19,309.83 591.88,295.75"/>
    </edge>
    <edge id=":14_7" function="internal">
        <lane id=":14_7_0" index="0" disallow="tram rail_urban rail rail_electric rail_fast ship" speed="11.11" length="3.85" shape="582.19,309.83 584.39,307.40 584.87,307.11"/>
    </edge>
    <edge id=":14_8" function="internal">
        <lane id=":14_8_0" index="0" disallow="tram rail_urban rail rail_electric rail_fast ship" speed="3.65" length="1.44" shape="582.19,309.83 583.50,309.23"/>
    </edge>
    <edge id=":14_11" function="internal">
        <lane id=":14_11_0" index="0" disallow="tram rail_urban rail rail_electric rail_fast ship" speed="11.11" length="13.55" shape="584.87,307.11 587.69,305.42 592.09,303.90 597.60,302.85"/>
    </edge>
    <edge id=":14_12" function="internal">
        <lane id=":14_12_0" index="0" disallow="tram rail_urban rail rail_electric rail_fast ship" speed="3.65" length="3.23" shape="583.50,309.23 584.39,309.31 584.86,310.07 584.91,311.51"/>
    </edge>
    <edge id=":15_0" function="internal">
        <lane id=":15_0_0" index="0" disallow="tram rail_urban rail rail_electric rail_fast ship" speed="11.11" length="15.21" shape="710.72,283.54 708.74,286.76 706.93,290.12 705.25,293.56 703.65,297.00"/>
    </edge>
    <edge id=":15_1" function="internal">
        <lane id=":15_1_0" index="0" disallow="tram rail_urban rail rail_electric rail_fast ship" speed="11.11" length="3.34" shape="710.72,283.54 708.59,285.86 708.43,285.97"/>
    </edge>
    <edge id=":15_2" function="internal">
        <lane id=":15_2_0" index="0" disallow="tram rail_urban rail rail_electric rail_fast ship" speed="3.65" length="1.44" shape="710.72,283.54 709.39,284.10"/>
    </edge>
    <edge id=":15_9" function="internal">
        <lane id=":15_9_0" index="0" disallow="tram rail_urban rail rail_electric rail_fast ship" speed="11.11" length="12.66" shape="708.43,285.97 705.55,287.79 701.60,289.34 696.73,290.50"/>
    </edge>
    <edge id=":15_10" function="internal">
        <lane id=":15_10_0" index="0" disallow="tram rail_urban rail rail_electric rail_fast ship" speed="3.65" length="3.23" shape="709.39,284.10 708.50,283.99 708.06,283.21 708.06,281.77"/>
    </edge>
    <edge id=":15_3" function="internal">
        <lane id=":15_3_0" index="0" disallow="tram rail_urban rail rail_electric rail_fast ship" speed="11.11" length="13.44" shape="696.16,287.36 700.39,286.37 703.78,285.11 706.34,283.58 708.06,281.77"/>
    </edge>
    <edge id=":15_4" function="internal">
        <lane id=":15_4_0" index="0" disallow="tram rail_urban rail rail_electric rail_fast ship" speed="7.38" length="17.46" shape="696.16,287.36 701.50,287.07 704.53,288.58 705.25,291.89 703.65,297.00"/>
    </edge>
    <edge id=":15_5" function="internal">
        <lane id=":15_5_0" index="0" disallow="tram rail_urban rail rail_electric rail_fast ship" speed="3.65" length="1.44" shape="696.16,287.36 697.48,287.93"/>
    </edge>
    <edge id=":15_11" function="internal">
        <lane id=":15_11_0" index="0" disallow="tram rail_urban rail rail_electric rail_fast ship" speed="3.65" length="3.23" shape="697.48,287.93 698.02,288.64 697.77,289.50 696.73,290.50"/>
    </edge>
    <edge id=":15_6" function="internal">
        <lane id=":15_6_0" index="0" disallow="tram rail_urban rail rail_electric rail_fast ship" speed="5.59" length="9.35" shape="700.74,295.66 701.60,292.93 701.21,291.16 699.59,290.35 696.73,290.50"/>
    </edge>
    <edge id=":15_7" function="internal">
        <lane id=":15_7_0" index="0" disallow="tram rail_urban rail rail_electric rail_fast ship" speed="11.11" length="15.72" shape="700.74,295.66 702.37,292.16 704.14,288.57 706.04,285.06 708.06,281.77"/>
    </edge>
    <edge id=":15_8" function="internal">
        <lane id=":15_8_0" index="0" disallow="tram rail_urban rail rail_electric rail_fast ship" speed="3.65" length="1.44" shape="700.74,295.66 701.97,294.91"/>
    </edge>
    <edge id=":15_12" function="internal">
        <lane id=":15_12_0" index="0" disallow="tram rail_urban rail rail_electric rail_fast ship" speed="3.65" length="3.23" shape="701.97,294.91 702.87,294.87 703.43,295.57 703.65,297.00"/>
    </edge>
    <edge id=":16_0" function="internal">
        <lane id=":16_0_0" index="0" disallow="tram rail_urban rail rail_electric rail_fast ship" speed="11.11" length="17.04" shape="663.68,296.53 646.87,299.34"/>
    </edge>
    <edge id=":16_1" function="internal">
        <lane id=":16_1_0" index="0" disallow="tram rail_urban rail rail_electric rail_fast ship" speed="7.41" length="6.06" shape="663.68,296.53 657.62,296.93"/>
    </edge>
    <edge id=":16_2" function="internal">
        <lane id=":16_2_0" index="0" disallow="tram rail_urban rail rail_electric rail_fast ship" speed="3.65" length="1.44" shape="663.68,296.53 662.35,295.95"/>
    </edge>
    <edge id=":16_9" function="internal">
        <lane id=":16_9_0" index="0" disallow="tram rail_urban rail rail_electric rail_fast ship" speed="7.41" length="13.00" shape="657.62,296.93 654.51,295.40 654.33,291.93 657.10,286.53"/>
    </edge>
    <edge id=":16_10" function="internal">
        <lane id=":16_10_0" index="0" disallow="tram rail_urban rail rail_electric rail_fast ship" speed="3.65" length="3.23" shape="662.35,295.95 661.82,295.24 662.07,294.38 663.10,293.38"/>
    </edge>
    <edge id=":16_3" function="internal">
        <lane id=":16_3_0" index="0" disallow="tram rail_urban rail rail_electric rail_fast ship" speed="5.48" length="9.68" shape="659.76,288.30 658.36,291.04 658.45,292.80 660.03,293.58 663.10,293.38"/>
    </edge>
    <edge id=":16_4" function="internal">
        <lane id=":16_4_0" index="0" disallow="tram rail_urban rail rail_electric rail_fast ship" speed="11.11" length="17.40" shape="659.76,288.30 656.41,292.82 653.15,296.16 649.97,298.34 646.87,299.34"/>
    </edge>
    <edge id=":16_5" function="internal">
        <lane id=":16_5_0" index="0" disallow="tram rail_urban rail rail_electric rail_fast ship" speed="3.65" length="1.44" shape="659.76,288.30 658.43,288.86"/>
    </edge>
    <edge id=":16_11" function="internal">
        <lane id=":16_11_0" index="0" disallow="tram rail_urban rail rail_electric rail_fast ship" speed="3.65" length="3.23" shape="658.43,288.86 657.54,288.75 657.10,287.97 657.10,286.53"/>
    </edge>
    <edge id=":16_6" function="internal">
        <lane id=":16_6_0" index="0" disallow="tram rail_urban rail rail_electric rail_fast ship" speed="11.11" length="14.70" shape="646.44,296.17 648.86,295.33 651.44,293.44 654.19,290.51 657.10,286.53"/>
    </edge>
    <edge id=":16_7" function="internal">
        <lane id=":16_7_0" index="0" disallow="tram rail_urban rail rail_electric rail_fast ship" speed="11.11" length="16.90" shape="646.44,296.17 663.10,293.38"/>
    </edge>
    <edge id=":16_8" function="internal">
        <lane id=":16_8_0" index="0" disallow="tram rail_urban rail rail_electric rail_fast ship" speed="3.65" length="1.44" shape="646.44,296.17 647.74,296.80"/>
    </edge>
    <edge id=":16_12" function="internal">
        <lane id=":16_12_0" index="0" disallow="tram rail_urban rail rail_electric rail_fast ship" speed="3.65" length="3.23" shape="647.74,296.80 648.24,297.54 647.95,298.38 646.87,299.34"/>
    </edge>
    <edge id=":17_0" function="internal">
        <lane id=":17_0_0" index="0" disallow="tram rail_urban rail rail_electric rail_fast ship" speed="6.56" length="9.10" shape="766.00,138.48 763.76,137.46 761.70,137.40 759.84,138.31 758.18,140.18"/>
    </edge>
    <edge id=":17_1" function="internal">
        <lane id=":17_1_0" index="0" disallow="tram rail_urban rail rail_electric rail_fast ship" speed="11.11" length="14.40" shape="766.00,138.48 753.90,130.68"/>
    </edge>
    <edge id=":17_2" function="internal">
        <lane id=":17_2_0" index="0" disallow="tram rail_urban rail rail_electric rail_fast ship" speed="3.65" length="1.44" shape="766.00,138.48 765.43,137.16"/>
    </edge>
    <edge id=":17_9" function="internal">
        <lane id=":17_9_0" index="0" disallow="tram rail_urban rail rail_electric rail_fast ship" speed="3.65" length="3.23" shape="765.43,137.16 765.53,136.27 766.30,135.82 767.74,135.80"/>
    </edge>
    <edge id=":17_3" function="internal">
        <lane id=":17_3_0" index="0" disallow="tram rail_urban rail rail_electric rail_fast ship" speed="11.11" length="14.40" shape="755.63,127.99 767.74,135.80"/>
    </edge>
    <edge id=":17_4" function="internal">
        <lane id=":17_4_0" index="0" disallow="tram rail_urban rail rail_electric rail_fast ship" speed="7.98" length="4.08" shape="755.63,127.99 758.59,130.56 758.66,130.71"/>
    </edge>
    <edge id=":17_5" function="internal">
        <lane id=":17_5_0" index="0" disallow="tram rail_urban rail rail_electric rail_fast ship" speed="3.65" length="1.44" shape="755.63,127.99 756.21,129.32"/>
    </edge>
    <edge id=":17_10" function="internal">
        <lane id=":17_10_0" index="0" disallow="tram rail_urban rail rail_electric rail_fast ship" speed="7.98" length="10.17" shape="758.66,130.71 760.00,133.44 759.86,136.65 758.18,140.18"/>
    </edge>
    <edge id=":17_11" function="internal">
        <lane id=":17_11_0" index="0" disallow="tram rail_urban rail rail_electric rail_fast ship" speed="3.65" length="3.23" shape="756.21,129.32 756.11,130.21 755.34,130.66 753.90,130.68"/>
    </edge>
    <edge id=":17_6" function="internal">
        <lane id=":17_6_0" index="0" disallow="tram rail_urban rail rail_electric rail_fast ship" speed="6.48" length="9.03" shape="755.51,138.41 756.58,136.17 756.67,134.14 755.77,132.31 753.90,130.68"/>
    </edge>
    <edge id=":17_7" function="internal">
        <lane id=":17_7_0" index="0" disallow="tram rail_urban rail rail_electric rail_fast ship" speed="8.05" length="14.21" shape="755.51,138.41 758.11,135.49 761.01,134.08 764.22,134.18 767.74,135.80"/>
    </edge>
    <edge id=":17_8" function="internal">
        <lane id=":17_8_0" index="0" disallow="tram rail_urban rail rail_electric rail_fast ship" speed="3.65" length="1.44" shape="755.51,138.41 756.84,137.86"/>
    </edge>
    <edge id=":17_12" function="internal">
        <lane id=":17_12_0" index="0" disallow="tram rail_urban rail rail_electric rail_fast ship" speed="3.65" length="3.23" shape="756.84,137.86 757.73,137.97 758.18,138.74 758.18,140.18"/>
    </edge>
    <edge id=":18_0" function="internal">
        <lane id=":18_0_0" index="0" disallow="tram rail_urban rail rail_electric rail_fast ship" speed="6.68" length="9.24" shape="756.86,224.79 754.50,223.76 752.38,223.69 750.49,224.56 748.84,226.39"/>
    </edge>
    <edge id=":18_1" function="internal">
        <lane id=":18_1_0" index="0" disallow="tram rail_urban rail rail_electric rail_fast ship" speed="7.93" length="14.34" shape="756.86,224.79 753.81,222.28 752.33,219.42 752.43,216.20 754.12,212.63"/>
    </edge>
    <edge id=":18_2" function="internal">
        <lane id=":18_2_0" index="0" disallow="tram rail_urban rail rail_electric rail_fast ship" speed="3.65" length="1.44" shape="756.86,224.79 756.25,223.48"/>
    </edge>
    <edge id=":18_9" function="internal">
        <lane id=":18_9_0" index="0" disallow="tram rail_urban rail rail_electric rail_fast ship" speed="3.65" length="3.23" shape="756.25,223.48 756.32,222.59 757.08,222.11 758.52,222.05"/>
    </edge>
    <edge id=":18_3" function="internal">
        <lane id=":18_3_0" index="0" disallow="tram rail_urban rail rail_electric rail_fast ship" speed="6.43" length="9.03" shape="756.79,214.39 755.73,216.64 755.66,218.67 756.59,220.47 758.52,222.05"/>
    </edge>
    <edge id=":18_4" function="internal">
        <lane id=":18_4_0" index="0" disallow="tram rail_urban rail rail_electric rail_fast ship" speed="11.11" length="14.40" shape="756.79,214.39 748.84,226.39"/>
    </edge>
    <edge id=":18_5" function="internal">
        <lane id=":18_5_0" index="0" disallow="tram rail_urban rail rail_electric rail_fast ship" speed="3.65" length="1.44" shape="756.79,214.39 755.46,214.95"/>
    </edge>
    <edge id=":18_10" function="internal">
        <lane id=":18_10_0" index="0" disallow="tram rail_urban rail rail_electric rail_fast ship" speed="3.65" length="3.23" shape="755.46,214.95 754.57,214.84 754.12,214.07 754.12,212.63"/>
    </edge>
    <edge id=":18_6" function="internal">
        <lane id=":18_6_0" index="0" disallow="tram rail_urban rail rail_electric rail_fast ship" speed="11.11" length="14.38" shape="746.17,224.61 754.12,212.63"/>
    </edge>
    <edge id=":18_7" function="internal">
        <lane id=":18_7_0" index="0" disallow="tram rail_urban rail rail_electric rail_fast ship" speed="8.14" length="3.98" shape="746.17,224.61 748.73,221.77 748.87,221.71"/>
    </edge>
    <edge id=":18_8" function="internal">
        <lane id=":18_8_0" index="0" disallow="tram rail_urban rail rail_electric rail_fast ship" speed="3.65" length="1.44" shape="746.17,224.61 747.51,224.06"/>
    </edge>
    <edge id=":18_11" function="internal">
        <lane id=":18_11_0" index="0" disallow="tram rail_urban rail rail_electric rail_fast ship" speed="8.14" length="10.26" shape="748.87,221.71 751.65,220.40 754.91,220.49 758.52,222.05"/>
    </edge>
    <edge id=":18_12" function="internal">
        <lane id=":18_12_0" index="0" disallow="tram rail_urban rail rail_electric rail_fast ship" speed="3.65" length="3.23" shape="747.51,224.06 748.39,224.17 748.84,224.95 748.84,226.39"/>
    </edge>
    <edge id=":19_0" function="internal">
        <lane id=":19_0_0" index="0" disallow="tram rail_urban rail rail_electric rail_fast ship" speed="11.11" length="14.41" shape="783.03,230.58 775.04,242.57"/>
    </edge>
    <edge id=":19_1" function="internal">
        <lane id=":19_1_0" index="0" disallow="tram rail_urban rail rail_electric rail_fast ship" speed="8.15" length="4.00" shape="783.03,230.58 780.47,233.42 780.31,233.50"/>
    </edge>
    <edge id=":19_2" function="internal">
        <lane id=":19_2_0" index="0" disallow="tram rail_urban rail rail_electric rail_fast ship" speed="3.65" length="1.44" shape="783.03,230.58 781.70,231.14"/>
    </edge>
    <edge id=":19_9" function="internal">
        <lane id=":19_9_0" index="0" disallow="tram rail_urban rail rail_electric rail_fast ship" speed="8.15" length="10.26" shape="780.31,233.50 777.55,234.80 774.29,234.70 770.67,233.14"/>
    </edge>
    <edge id=":19_10" function="internal">
        <lane id=":19_10_0" index="0" disallow="tram rail_urban rail rail_electric rail_fast ship" speed="3.65" length="3.23" shape="781.70,231.14 780.81,231.03 780.37,230.25 780.37,228.81"/>
    </edge>
    <edge id=":19_3" function="internal">
        <lane id=":19_3_0" index="0" disallow="tram rail_urban rail rail_electric rail_fast ship" speed="6.68" length="9.26" shape="772.32,230.40 774.69,231.43 776.82,231.51 778.71,230.63 780.37,228.81"/>
    </edge>
    <edge id=":19_4" function="internal">
        <lane id=":19_4_0" index="0" disallow="tram rail_urban rail rail_electric rail_fast ship" speed="7.92" length="14.36" shape="772.32,230.40 775.39,232.91 776.86,235.78 776.74,239.00 775.04,242.57"/>
    </edge>
    <edge id=":19_5" function="internal">
        <lane id=":19_5_0" index="0" disallow="tram rail_urban rail rail_electric rail_fast ship" speed="3.65" length="1.44" shape="772.32,230.40 772.94,231.71"/>
    </edge>
    <edge id=":19_11" function="internal">
        <lane id=":19_11_0" index="0" disallow="tram rail_urban rail rail_electric rail_fast ship" speed="3.65" length="3.23" shape="772.94,231.71 772.86,232.60 772.11,233.08 770.67,233.14"/>
    </edge>
    <edge id=":19_6" function="internal">
        <lane id=":19_6_0" index="0" disallow="tram rail_urban rail rail_electric rail_fast ship" speed="6.41" length="9.04" shape="772.37,240.79 773.45,238.55 773.52,236.52 772.59,234.72 770.67,233.14"/>
    </edge>