<?xml version="1.0" encoding="UTF-8"?>

<!-- generated on 2026-01-20 01:16:57 by Eclipse SUMO netconvert Version 1.18.0
<configuration xmlns:xsi="http://www.w3.org/2001/XMLSchema-instance" xsi:noNamespaceSchemaLocation="http://sumo.dlr.de/xsd/netconvertConfiguration.xsd">

    <input>
        <osm-files value="C:\Users\91948\OneDrive\Desktop\Traffic-Light-Optimization-With-Reinforcement-Learning\backend\sumo\networks\bangalore_silk_board\bangalore_silk_board.osm"/>
    </input>

    <output>
        <output-file value="C:\Users\91948\OneDrive\Desktop\Traffic-Light-Optimization-With-Reinforcement-Learning\backend\sumo\networks\bangalore_silk_board\bangalore_silk_board.net.xml"/>
    </output>

    <projection>
        <proj.utm value="true"/>
    </projection>

    <processing>
        <geometry.remove value="true"/>
    </processing>

    <tls_building>
        <tls.discard-simple value="true"/>
        <tls.join value="true"/>
        <tls.guess-signals value="true"/>
        <tls.default-type value="actuated"/>
    </tls_building>

    <ramp_guessing>
        <ramps.guess value="true"/>
    </ramp_guessing>

    <junctions>
        <junctions.join value="true"/>
    </junctions>

</configuration>
-->

<net version="1.16" junctionCornerDetail="5" limitTurnSpeed="5.50" xmlns:xsi="http://www.w3.org/2001/XMLSchema-instance" xsi:noNamespaceSchemaLocation="http://sumo.dlr.de/xsd/net_file.xsd">

    <location netOffset="-784535.77,-1429336.33" convBoundary="0.00,0.00,238.61,243.58" origBoundary="77.622185,12.916291,77.624375,12.918505" projParameter="+proj=utm +zone=43 +ellps=WGS84 +datum=WGS84 +units=m +no_defs"/>

    <type id="highway.residential" priority="3" numLanes="1" speed="13.89" disallow="tram rail_urban rail rail_electric rail_fast ship" oneway="0"/>
    <type id="highway.residential|highway.tertiary" priority="10" numLanes="1" speed="22.22" disallow="tram rail_urban rail rail_electric rail_fast ship" oneway="0"/>
    <type id="highway.residential|highway.trunk" priority="13" numLanes="2" speed="27.78" disallow="tram rail_urban rail rail_electric rail_fast ship" oneway="0"/>
    <type id="highway.residential|highway.trunk_link" priority="8" numLanes="1" speed="22.22" disallow="tram rail_urban rail rail_electric rail_fast ship" oneway="0"/>

    <edge id=":1_0" function="internal">
        <lane id=":1_0_0" index="0" disallow="tram rail_urban rail rail_electric rail_fast ship" speed="3.24" length="3.20" shape="227.97,97.93 227.29,101.06"/>
    </edge>
    <edge id=":1_1" function="internal">
        <lane id=":1_1_0" index="0" disallow="tram rail_urban rail rail_electric rail_fast ship" speed="3.24" length="3.20" shape="227.97,97.93 227.29,101.06"/>
    </edge>
    <edge id=":10_0" function="internal">
        <lane id=":10_0_0" index="0" disallow="tram rail_urban rail rail_electric rail_fast ship" speed="3.65" length="4.67" shape="142.43,-0.82 143.74,-1.44 144.63,-1.37 145.11,-0.62 145.18,0.82"/>
    </edge>
    <edge id=":11_0" function="internal">
        <lane id=":11_0_0" index="0" disallow="tram rail_urban rail rail_electric rail_fast ship" speed="22.22" length="11.61" shape="97.96,5.23 92.98,15.71"/>
    </edge>
    <edge id=":11_1" function="internal">
        <lane id=":11_1_0" index="0" disallow="tram rail_urban rail rail_electric rail_fast ship" speed="7.19" length="2.93" shape="97.96,5.23 96.14,7.53"/>
    </edge>
    <edge id=":11_2" function="internal">
        <lane id=":11_2_0" index="0" disallow="tram rail_urban rail rail_electric rail_fast ship" speed="6.95" length="1.98" shape="97.96,5.23 96.49,6.54"/>
    </edge>
    <edge id=":11_3" function="internal">
        <lane id=":11_3_0" index="0" disallow="tram rail_urban rail rail_electric rail_fast ship" speed="3.65" length="1.44" shape="97.96,5.23 96.70,5.92"/>
    </edge>
    <edge id=":11_16" function="internal">
        <lane id=":11_16_0" index="0" disallow="tram rail_urban rail rail_electric rail_fast ship" speed="7.19" length="9.60" shape="96.14,7.53 96.08,7.61 93.68,8.54 90.76,8.02 87.33,6.05"/>
    </edge>
    <edge id=":11_17" function="internal">
        <lane id=":11_17_0" index="0" disallow="tram rail_urban rail rail_electric rail_fast ship" speed="6.95" length="9.66" shape="96.49,6.54 96.02,6.96 93.11,7.59 89.97,7.24 87.33,6.05"/>
    </edge>
    <edge id=":11_18" function="internal">
        <lane id=":11_18_0" index="0" disallow="tram rail_urban rail rail_electric rail_fast ship" speed="3.65" length="3.23" shape="96.70,5.92 95.80,5.90 95.28,5.17 95.13,3.74"/>
    </edge>
    <edge id=":11_4" function="internal">
        <lane id=":11_4_0" index="0" disallow="tram rail_urban rail rail_electric rail_fast ship" speed="5.50" length="6.84" shape="89.22,3.47 91.23,4.68 92.88,5.14 94.19,4.82 95.13,3.74"/>
    </edge>
    <edge id=":11_5" function="internal">
        <lane id=":11_5_0" index="0" disallow="tram rail_urban rail rail_electric rail_fast ship" speed="8.66" length="14.01" shape="89.22,3.47 92.05,6.13 93.61,9.06 93.92,12.25 92.98,15.71"/>
    </edge>
    <edge id=":11_6" function="internal">
        <lane id=":11_6_0" index="0" disallow="tram rail_urban rail rail_electric rail_fast ship" speed="3.24" length="3.20" shape="89.22,3.47 87.33,6.05"/>
    </edge>
    <edge id=":11_7" function="internal">
        <lane id=":11_7_0" index="0" disallow="tram rail_urban rail rail_electric rail_fast ship" speed="3.65" length="4.67" shape="89.22,3.47 89.71,4.82 89.56,5.70 88.77,6.11 87.33,6.05"/>
    </edge>
    <edge id=":11_8" function="internal">
        <lane id=":11_8_0" index="0" disallow="tram rail_urban rail rail_electric rail_fast ship" speed="5.50" length="6.84" shape="89.22,3.47 91.23,4.68 92.88,5.14 94.19,4.82 95.13,3.74"/>
    </edge>
    <edge id=":11_9" function="internal">
        <lane id=":11_9_0" index="0" disallow="tram rail_urban rail rail_electric rail_fast ship" speed="8.53" length="13.55" shape="89.22,3.47 91.48,5.94 92.98,9.19 93.54,12.64 92.98,15.71"/>
    </edge>
    <edge id=":11_10" function="internal">
        <lane id=":11_10_0" index="0" disallow="tram rail_urban rail rail_electric rail_fast ship" speed="3.24" length="3.20" shape="89.22,3.47 87.33,6.05"/>
    </edge>
    <edge id=":11_11" function="internal">
        <lane id=":11_11_0" index="0" disallow="tram rail_urban rail rail_electric rail_fast ship" speed="3.65" length="4.67" shape="89.22,3.47 89.71,4.82 89.56,5.70 88.77,6.11 87.33,6.05"/>
    </edge>
    <edge id=":11_12" function="internal">
        <lane id=":11_12_0" index="0" disallow="tram rail_urban rail rail_electric rail_fast ship" speed="7.27" length="9.63" shape="90.05,14.43 90.67,12.09 90.43,9.91 89.31,7.90 87.33,6.05"/>
    </edge>
    <edge id=":11_13" function="internal">
        <lane id=":11_13_0" index="0" disallow="tram rail_urban rail rail_electric rail_fast ship" speed="7.27" length="9.63" shape="90.05,14.43 90.67,12.09 90.43,9.91 89.31,7.90 87.33,6.05"/>
    </edge>
    <edge id=":11_14" function="internal">
        <lane id=":11_14_0" index="0" disallow="tram rail_urban rail rail_electric rail_fast ship" speed="22.22" length="11.84" shape="90.05,14.43 95.13,3.74"/>
    </edge>
    <edge id=":11_15" function="internal">
        <lane id=":11_15_0" index="0" disallow="tram rail_urban rail rail_electric rail_fast ship" speed="3.65" length="1.44" shape="90.05,14.43 91.26,13.65"/>
    </edge>
    <edge id=":11_19" function="internal">
        <lane id=":11_19_0" index="0" disallow="tram rail_urban rail rail_electric rail_fast ship" speed="3.65" length="3.23" shape="91.26,13.65 92.15,13.61 92.73,14.29 92.98,15.71"/>
    </edge>
    <edge id=":12_0" function="internal">
        <lane id=":12_0_0" index="0" disallow="tram rail_urban rail rail_electric rail_fast ship" speed="7.42" length="11.90" shape="84.72,116.24 83.50,119.31 81.62,121.27 79.09,122.13 75.89,121.87"/>
    </edge>
    <edge id=":12_1" function="internal">
        <lane id=":12_1_0" index="0" disallow="tram rail_urban rail rail_electric rail_fast ship" speed="3.24" length="3.20" shape="84.72,116.24 81.61,115.48"/>
    </edge>
    <edge id=":12_2" function="internal">
        <lane id=":12_2_0" index="0" disallow="tram rail_urban rail rail_electric rail_fast ship" speed="3.65" length="1.44" shape="84.72,116.24 83.66,117.21"/>
    </edge>
    <edge id=":12_9" function="internal">
        <lane id=":12_9_0" index="0" disallow="tram rail_urban rail rail_electric rail_fast ship" speed="3.65" length="3.23" shape="83.66,117.21 82.78,117.41 82.10,116.83 81.61,115.48"/>
    </edge>
    <edge id=":12_3" function="internal">
        <lane id=":12_3_0" index="0" disallow="tram rail_urban rail rail_electric rail_fast ship" speed="7.42" length="11.90" shape="84.72,116.24 83.50,119.31 81.62,121.27 79.09,122.13 75.89,121.87"/>
    </edge>
    <edge id=":12_4" function="internal">
        <lane id=":12_4_0" index="0" disallow="tram rail_urban rail rail_electric rail_fast ship" speed="3.24" length="3.20" shape="84.72,116.24 81.61,115.48"/>
    </edge>
    <edge id=":12_5" function="internal">
        <lane id=":12_5_0" index="0" disallow="tram rail_urban rail rail_electric rail_fast ship" speed="3.65" length="4.67" shape="84.72,116.24 83.66,117.21 82.78,117.41 82.10,116.83 81.61,115.48"/>
    </edge>
    <edge id=":12_6" function="internal">
        <lane id=":12_6_0" index="0" disallow="tram rail_urban rail rail_electric rail_fast ship" speed="4.86" length="4.53" shape="77.33,115.64 79.10,115.97 80.41,116.06 81.25,115.89 81.61,115.48"/>
    </edge>
    <edge id=":12_7" function="internal">
        <lane id=":12_7_0" index="0" disallow="tram rail_urban rail rail_electric rail_fast ship" speed="5.77" length="6.80" shape="76.61,118.76 78.41,118.89 79.85,118.39 80.91,117.25 81.61,115.48"/>
    </edge>
    <edge id=":12_8" function="internal">
        <lane id=":12_8_0" index="0" disallow="tram rail_urban rail rail_electric rail_fast ship" speed="3.65" length="4.67" shape="76.61,118.76 77.60,119.80 77.81,120.67 77.24,121.36 75.89,121.87"/>
    </edge>
    <edge id=":13_0" function="internal">
        <lane id=":13_0_0" index="0" disallow="tram rail_urban rail rail_electric rail_fast ship" speed="5.99" length="7.26" shape="91.79,116.15 88.84,115.63 86.68,115.44 85.32,115.58 84.77,116.05"/>
    </edge>
    <edge id=":13_1" function="internal">
        <lane id=":13_1_0" index="0" disallow="tram rail_urban rail rail_electric rail_fast ship" speed="5.99" length="7.26" shape="91.79,116.15 88.84,115.63 86.68,115.44 85.32,115.58 84.77,116.05"/>
    </edge>
    <edge id=":13_2" function="internal">
        <lane id=":13_2_0" index="0" disallow="tram rail_urban rail rail_electric rail_fast ship" speed="13.89" length="15.29" shape="91.79,116.15 76.81,112.89"/>
        <lane id=":13_2_1" index="1" disallow="tram rail_urban rail rail_electric rail_fast ship" speed="13.89" length="15.29" shape="92.43,113.01 77.54,109.78"/>
    </edge>
    <edge id=":13_4" function="internal">
        <lane id=":13_4_0" index="0" disallow="tram rail_urban rail rail_electric rail_fast ship" speed="11.12" length="24.33" shape="92.43,113.01 88.34,111.01 85.45,106.90 83.78,100.69 83.30,92.38"/>
    </edge>
    <edge id=":13_5" function="internal">
        <lane id=":13_5_0" index="0" disallow="tram rail_urban rail rail_electric rail_fast ship" speed="9.12" length="22.78" shape="92.43,113.01 88.55,111.03 87.07,107.14 87.99,101.34 91.32,93.65"/>
    </edge>
    <edge id=":13_6" function="internal">
        <lane id=":13_6_0" index="0" disallow="tram rail_urban rail rail_electric rail_fast ship" speed="3.65" length="4.67" shape="92.43,113.01 91.42,111.99 91.18,111.13 91.74,110.42 93.07,109.88"/>
    </edge>
    <edge id=":13_7" function="internal">
        <lane id=":13_7_0" index="0" disallow="tram rail_urban rail rail_electric rail_fast ship" speed="7.89" length="16.72" shape="94.15,95.14 91.43,101.13 90.34,105.58 90.89,108.50 93.07,109.88"/>
    </edge>
    <edge id=":13_8" function="internal">
        <lane id=":13_8_0" index="0" disallow="tram rail_urban rail rail_electric rail_fast ship" speed="22.22" length="22.95" shape="94.15,95.14 91.88,99.59 89.04,105.43 86.41,111.35 84.77,116.05"/>
    </edge>
    <edge id=":13_9" function="internal">
        <lane id=":13_9_0" index="0" disallow="tram rail_urban rail rail_electric rail_fast ship" speed="22.22" length="22.95" shape="94.15,95.14 91.88,99.59 89.04,105.43 86.41,111.35 84.77,116.05"/>
    </edge>
    <edge id=":13_10" function="internal">
        <lane id=":13_10_0" index="0" disallow="tram rail_urban rail rail_electric rail_fast ship" speed="11.27" length="23.53" shape="94.15,95.14 89.87,102.24 85.67,107.05 81.56,109.56 77.54,109.78"/>
    </edge>
    <edge id=":13_11" function="internal">
        <lane id=":13_11_0" index="0" disallow="tram rail_urban rail rail_electric rail_fast ship" speed="6.27" length="15.31" shape="94.15,95.14 91.23,97.90 87.61,98.16 84.56,96.21 83.30,92.38"/>
    </edge>
    <edge id=":13_12" function="internal">
        <lane id=":13_12_0" index="0" disallow="tram rail_urban rail rail_electric rail_fast ship" speed="3.65" length="4.67" shape="94.15,95.14 92.89,95.83 91.99,95.81 91.47,95.08 91.32,93.65"/>
    </edge>
    <edge id=":13_13" function="internal">
        <lane id=":13_13_0" index="0" disallow="tram rail_urban rail rail_electric rail_fast ship" speed="5.59" length="11.79" shape="86.50,92.43 86.75,96.51 87.63,98.08 89.16,97.13 91.32,93.65"/>
    </edge>
    <edge id=":13_14" function="internal">
        <lane id=":13_14_0" index="0" disallow="tram rail_urban rail rail_electric rail_fast ship" speed="10.10" length="19.93" shape="86.50,92.43 86.83,99.54 88.03,104.82 90.11,108.27 93.07,109.88"/>
    </edge>
    <edge id=":13_15" function="internal">
        <lane id=":13_15_0" index="0" disallow="tram rail_urban rail rail_electric rail_fast ship" speed="22.22" length="23.71" shape="86.50,92.43 86.37,97.54 86.06,104.29 85.53,111.01 84.77,116.05"/>
    </edge>
    <edge id=":13_16" function="internal">
        <lane id=":13_16_0" index="0" disallow="tram rail_urban rail rail_electric rail_fast ship" speed="22.22" length="23.71" shape="86.50,92.43 86.37,97.54 86.06,104.29 85.53,111.01 84.77,116.05"/>
    </edge>
    <edge id=":13_17" function="internal">
        <lane id=":13_17_0" index="0" disallow="tram rail_urban rail rail_electric rail_fast ship" speed="9.20" length="9.51" shape="86.50,92.43 85.84,100.78 85.51,101.86"/>
    </edge>
    <edge id=":13_18" function="internal">
        <lane id=":13_18_0" index="0" disallow="tram rail_urban rail rail_electric rail_fast ship" speed="3.65" length="1.44" shape="86.50,92.43 85.69,93.62"/>
    </edge>
    <edge id=":13_37" function="internal">
        <lane id=":13_37_0" index="0" disallow="tram rail_urban rail rail_electric rail_fast ship" speed="9.20" length="12.71" shape="85.51,101.86 84.13,106.46 81.36,109.45 77.54,109.78"/>
    </edge>
    <edge id=":13_38" function="internal">
        <lane id=":13_38_0" index="0" disallow="tram rail_urban rail rail_electric rail_fast ship" speed="3.65" length="3.23" shape="85.69,93.62 84.88,94.00 84.09,93.59 83.30,92.38"/>
    </edge>
    <edge id=":13_19" function="internal">
        <lane id=":13_19_0" index="0" disallow="tram rail_urban rail rail_electric rail_fast ship" speed="8.00" length="16.53" shape="78.27,106.66 80.39,106.19 81.94,103.65 82.91,99.05 83.30,92.38"/>
    </edge>
    <edge id=":13_20" function="internal">
        <lane id=":13_20_0" index="0" disallow="tram rail_urban rail rail_electric rail_fast ship" speed="10.27" length="19.38" shape="78.27,106.66 81.16,106.33 84.31,104.06 87.69,99.83 91.32,93.65"/>
    </edge>
    <edge id=":13_21" function="internal">
        <lane id=":13_21_0" index="0" disallow="tram rail_urban rail rail_electric rail_fast ship" speed="13.89" length="15.15" shape="78.27,106.66 93.07,109.88"/>
    </edge>
    <edge id=":13_22" function="internal">
        <lane id=":13_22_0" index="0" disallow="tram rail_urban rail rail_electric rail_fast ship" speed="7.66" length="13.04" shape="78.27,106.66 81.80,107.98 84.06,109.98 85.05,112.67 84.77,116.05"/>
    </edge>
    <edge id=":13_23" function="internal">
        <lane id=":13_23_0" index="0" disallow="tram rail_urban rail rail_electric rail_fast ship" speed="7.47" length="12.34" shape="78.27,106.66 80.97,107.97 83.25,110.29 84.66,113.14 84.77,116.05"/>
    </edge>
    <edge id=":13_24" function="internal">
        <lane id=":13_24_0" index="0" disallow="tram rail_urban rail rail_electric rail_fast ship" speed="3.65" length="4.67" shape="78.27,106.66 79.25,107.71 79.46,108.58 78.89,109.27 77.54,109.78"/>
    </edge>
    <edge id=":13_25" function="internal">
        <lane id=":13_25_0" index="0" disallow="tram rail_urban rail rail_electric rail_fast ship" speed="5.29" length="5.66" shape="81.66,115.28 81.47,114.69 80.59,114.09 79.04,113.49 76.81,112.89"/>
    </edge>
    <edge id=":13_26" function="internal">
        <lane id=":13_26_0" index="0" disallow="tram rail_urban rail rail_electric rail_fast ship" speed="22.22" length="22.98" shape="81.66,115.28 82.41,110.36 82.90,103.89 83.18,97.39 83.30,92.38"/>
    </edge>
    <edge id=":13_27" function="internal">
        <lane id=":13_27_0" index="0" disallow="tram rail_urban rail rail_electric rail_fast ship" speed="22.22" length="23.72" shape="81.66,115.28 83.35,110.48 86.07,104.31 89.00,98.22 91.32,93.65"/>
    </edge>
    <edge id=":13_28" function="internal">
        <lane id=":13_28_0" index="0" disallow="tram rail_urban rail rail_electric rail_fast ship" speed="8.12" length="2.68" shape="81.66,115.28 82.76,112.84"/>
    </edge>
    <edge id=":13_29" function="internal">
        <lane id=":13_29_0" index="0" disallow="tram rail_urban rail rail_electric rail_fast ship" speed="3.24" length="1.51" shape="81.66,115.28 83.13,115.64"/>
    </edge>
    <edge id=":13_30" function="internal">
        <lane id=":13_30_0" index="0" disallow="tram rail_urban rail rail_electric rail_fast ship" speed="3.65" length="1.44" shape="81.66,115.28 82.73,114.31"/>
    </edge>
    <edge id=":13_39" function="internal">
        <lane id=":13_39_0" index="0" disallow="tram rail_urban rail rail_electric rail_fast ship" speed="8.12" length="11.53" shape="82.76,112.84 83.05,112.18 85.42,110.25 88.76,109.48 93.07,109.88"/>
    </edge>
    <edge id=":13_40" function="internal">
        <lane id=":13_40_0" index="0" disallow="tram rail_urban rail rail_electric rail_fast ship" speed="3.24" length="1.69" shape="83.13,115.64 84.77,116.05"/>
    </edge>
    <edge id=":13_41" function="internal">
        <lane id=":13_41_0" index="0" disallow="tram rail_urban rail rail_electric rail_fast ship" speed="3.65" length="3.23" shape="82.73,114.31 83.60,114.11 84.28,114.69 84.77,116.05"/>
    </edge>
    <edge id=":13_31" function="internal">
        <lane id=":13_31_0" index="0" disallow="tram rail_urban rail rail_electric rail_fast ship" speed="5.29" length="5.66" shape="81.66,115.28 81.47,114.69 80.59,114.09 79.04,113.49 76.81,112.89"/>
    </edge>
    <edge id=":13_32" function="internal">
        <lane id=":13_32_0" index="0" disallow="tram rail_urban rail rail_electric rail_fast ship" speed="22.22" length="22.98" shape="81.66,115.28 82.41,110.36 82.90,103.89 83.18,97.39 83.30,92.38"/>
    </edge>
    <edge id=":13_33" function="internal">
        <lane id=":13_33_0" index="0" disallow="tram rail_urban rail rail_electric rail_fast ship" speed="22.22" length="23.72" shape="81.66,115.28 83.35,110.48 86.07,104.31 89.00,98.22 91.32,93.65"/>
    </edge>
    <edge id=":13_34" function="internal">
        <lane id=":13_34_0" index="0" disallow="tram rail_urban rail rail_electric rail_fast ship" speed="7.93" length="13.50" shape="81.66,115.28 83.25,112.77 86.16,110.89 89.68,109.85 93.07,109.88"/>
    </edge>
    <edge id=":13_35" function="internal">
        <lane id=":13_35_0" index="0" disallow="tram rail_urban rail rail_electric rail_fast ship" speed="3.24" length="3.20" shape="81.66,115.28 84.77,116.05"/>
    </edge>
    <edge id=":13_36" function="internal">
        <lane id=":13_36_0" index="0" disallow="tram rail_urban rail rail_electric rail_fast ship" speed="3.65" length="4.67" shape="81.66,115.28 82.73,114.31 83.60,114.11 84.28,114.69 84.77,116.05"/>
    </edge>
    <edge id=":14_0" function="internal">
        <lane id=":14_0_0" index="0" disallow="tram rail_urban rail rail_electric rail_fast ship" speed="3.24" length="3.20" shape="68.46,23.26 65.86,21.40"/>
    </edge>
    <edge id=":14_1" function="internal">
        <lane id=":14_1_0" index="0" disallow="tram rail_urban rail rail_electric rail_fast ship" speed="3.24" length="3.20" shape="68.46,23.26 65.86,21.40"/>
    </edge>
    <edge id=":15_0" function="internal">
        <lane id=":15_0_0" index="0" disallow="tram rail_urban rail rail_electric rail_fast ship" speed="7.95" length="14.31" shape="7.38,184.10 4.36,181.58 2.91,178.71 3.02,175.49 4.70,171.93"/>
    </edge>
    <edge id=":15_1" function="internal">
        <lane id=":15_1_0" index="0" disallow="tram rail_urban rail rail_electric rail_fast ship" speed="3.24" length="1.71" shape="7.38,184.10 8.29,182.64"/>
    </edge>
    <edge id=":15_2" function="internal">
        <lane id=":15_2_0" index="0" disallow="tram rail_urban rail rail_electric rail_fast ship" speed="3.65" length="1.44" shape="7.38,184.10 6.78,182.79"/>
    </edge>
    <edge id=":15_9" function="internal">
        <lane id=":15_9_0" index="0" disallow="tram rail_urban rail rail_electric rail_fast ship" speed="3.24" length="1.49" shape="8.29,182.64 9.07,181.38"/>
    </edge>
    <edge id=":15_10" function="internal">
        <lane id=":15_10_0" index="0" disallow="tram rail_urban rail rail_electric rail_fast ship" speed="3.65" length="3.23" shape="6.78,182.79 6.87,181.90 7.63,181.43 9.07,181.38"/>
    </edge>
    <edge id=":15_3" function="internal">
        <lane id=":15_3_0" index="0" disallow="tram rail_urban rail rail_electric rail_fast ship" speed="6.44" length="9.03" shape="7.37,173.70 6.31,175.94 6.24,177.97 7.16,179.79 9.07,181.38"/>
    </edge>
    <edge id=":15_4" function="internal">
        <lane id=":15_4_0" index="0" disallow="tram rail_urban rail rail_electric rail_fast ship" speed="6.44" length="9.03" shape="7.37,173.70 6.31,175.94 6.24,177.97 7.16,179.79 9.07,181.38"/>
    </edge>
    <edge id=":15_5" function="internal">
        <lane id=":15_5_0" index="0" disallow="tram rail_urban rail rail_electric rail_fast ship" speed="3.65" length="1.30" shape="7.37,173.70 6.17,174.20"/>
    </edge>
    <edge id=":15_11" function="internal">
        <lane id=":15_11_0" index="0" disallow="tram rail_urban rail rail_electric rail_fast ship" speed="3.65" length="3.37" shape="6.17,174.20 6.05,174.26 5.16,174.15 4.71,173.38 4.70,171.93"/>
    </edge>
    <edge id=":15_6" function="internal">
        <lane id=":15_6_0" index="0" disallow="tram rail_urban rail rail_electric rail_fast ship" speed="7.95" length="14.31" shape="7.38,184.10 4.36,181.58 2.91,178.71 3.02,175.49 4.70,171.93"/>
    </edge>
    <edge id=":15_7" function="internal">
        <lane id=":15_7_0" index="0" disallow="tram rail_urban rail rail_electric rail_fast ship" speed="3.24" length="3.20" shape="7.38,184.10 9.07,181.38"/>
    </edge>
    <edge id=":15_8" function="internal">
        <lane id=":15_8_0" index="0" disallow="tram rail_urban rail rail_electric rail_fast ship" speed="3.65" length="4.67" shape="7.38,184.10 6.78,182.79 6.87,181.90 7.63,181.43 9.07,181.38"/>
    </edge>
    <edge id=":16_0" function="internal">
        <lane id=":16_0_0" index="0" disallow="tram rail_urban rail rail_electric rail_fast ship" speed="22.22" length="17.23" shape="157.65,93.61 156.13,89.79 154.75,85.48 153.74,81.08 153.32,77.03"/>
    </edge>
    <edge id=":16_1" function="internal">
        <lane id=":16_1_0" index="0" disallow="tram rail_urban rail rail_electric rail_fast ship" speed="7.38" length="5.68" shape="157.65,93.61 156.11,88.41 156.17,88.16"/>
    </edge>
    <edge id=":16_2" function="internal">
        <lane id=":16_2_0" index="0" disallow="tram rail_urban rail rail_electric rail_fast ship" speed="6.60" length="2.08" shape="157.65,93.61 157.62,91.53"/>
    </edge>
    <edge id=":16_3" function="internal">
        <lane id=":16_3_0" index="0" disallow="tram rail_urban rail rail_electric rail_fast ship" speed="3.65" length="1.44" shape="157.65,93.61 157.90,92.19"/>
    </edge>
    <edge id=":16_16" function="internal">
        <lane id=":16_16_0" index="0" disallow="tram rail_urban rail rail_electric rail_fast ship" speed="7.38" length="11.95" shape="156.17,88.16 156.89,85.11 159.98,83.70 165.38,84.19"/>
    </edge>
    <edge id=":16_17" function="internal">
        <lane id=":16_17_0" index="0" disallow="tram rail_urban rail rail_electric rail_fast ship" speed="6.60" length="11.71" shape="157.62,91.53 157.61,90.45 159.41,87.18 162.27,84.77 165.38,84.19"/>
    </edge>
    <edge id=":16_18" function="internal">
        <lane id=":16_18_0" index="0" disallow="tram rail_urban rail rail_electric rail_fast ship" speed="3.65" length="3.23" shape="157.90,92.19 158.47,91.51 159.37,91.55 160.58,92.33"/>
    </edge>
    <edge id=":16_4" function="internal">
        <lane id=":16_4_0" index="0" disallow="tram rail_urban rail rail_electric rail_fast ship" speed="5.57" length="9.38" shape="164.69,87.32 161.82,87.06 160.18,87.81 159.76,89.56 160.58,92.33"/>
    </edge>
    <edge id=":16_5" function="internal">
        <lane id=":16_5_0" index="0" disallow="tram rail_urban rail rail_electric rail_fast ship" speed="9.44" length="16.64" shape="164.69,87.32 159.75,85.75 156.21,83.51 154.06,80.60 153.32,77.03"/>
    </edge>
    <edge id=":16_6" function="internal">
        <lane id=":16_6_0" index="0" disallow="tram rail_urban rail rail_electric rail_fast ship" speed="3.24" length="3.20" shape="164.69,87.32 165.38,84.19"/>
    </edge>
    <edge id=":16_7" function="internal">
        <lane id=":16_7_0" index="0" disallow="tram rail_urban rail rail_electric rail_fast ship" speed="3.65" length="4.67" shape="164.69,87.32 163.69,86.28 163.47,85.41 164.03,84.72 165.38,84.19"/>
    </edge>
    <edge id=":16_8" function="internal">
        <lane id=":16_8_0" index="0" disallow="tram rail_urban rail rail_electric rail_fast ship" speed="5.57" length="9.38" shape="164.69,87.32 161.82,87.06 160.18,87.81 159.76,89.56 160.58,92.33"/>
    </edge>
    <edge id=":16_9" function="internal">
        <lane id=":16_9_0" index="0" disallow="tram rail_urban rail rail_electric rail_fast ship" speed="9.28" length="16.07" shape="164.69,87.32 160.81,85.80 157.15,83.23 154.41,80.13 153.32,77.03"/>
    </edge>
    <edge id=":16_10" function="internal">
        <lane id=":16_10_0" index="0" disallow="tram rail_urban rail rail_electric rail_fast ship" speed="3.24" length="3.20" shape="164.69,87.32 165.38,84.19"/>
    </edge>
    <edge id=":16_11" function="internal">
        <lane id=":16_11_0" index="0" disallow="tram rail_urban rail rail_electric rail_fast ship" speed="3.65" length="4.67" shape="164.69,87.32 163.69,86.28 163.47,85.41 164.03,84.72 165.38,84.19"/>
    </edge>
    <edge id=":16_12" function="internal">
        <lane id=":16_12_0" index="0" disallow="tram rail_urban rail rail_electric rail_fast ship" speed="8.19" length="12.32" shape="156.52,76.99 157.09,79.42 158.76,81.43 161.52,83.02 165.38,84.19"/>
    </edge>
    <edge id=":16_13" function="internal">
        <lane id=":16_13_0" index="0" disallow="tram rail_urban rail rail_electric rail_fast ship" speed="8.19" length="12.32" shape="156.52,76.99 157.09,79.42 158.76,81.43 161.52,83.02 165.38,84.19"/>
    </edge>
    <edge id=":16_14" function="internal">
        <lane id=":16_14_0" index="0" disallow="tram rail_urban rail rail_electric rail_fast ship" speed="22.22" length="15.96" shape="156.52,76.99 156.89,80.85 157.82,84.82 159.11,88.70 160.58,92.33"/>
    </edge>
    <edge id=":16_15" function="internal">
        <lane id=":16_15_0" index="0" disallow="tram rail_urban rail rail_electric rail_fast ship" speed="3.65" length="1.44" shape="156.52,76.99 155.73,78.20"/>
    </edge>
    <edge id=":16_19" function="internal">
        <lane id=":16_19_0" index="0" disallow="tram rail_urban rail rail_electric rail_fast ship" speed="3.65" length="3.23" shape="155.73,78.20 154.93,78.61 154.13,78.22 153.32,77.03"/>
    </edge>
    <edge id=":17_0" function="internal">
        <lane id=":17_0_0" index="0" disallow="tram rail_urban rail rail_electric rail_fast ship" speed="3.24" length="3.20" shape="180.59,223.98 180.99,220.80"/>
    </edge>
    <edge id=":17_1" function="internal">
        <lane id=":17_1_0" index="0" disallow="tram rail_urban rail rail_electric rail_fast ship" speed="3.24" length="3.20" shape="180.59,223.98 180.99,220.80"/>
    </edge>
    <edge id=":18_0" function="internal">
        <lane id=":18_0_0" index="0" disallow="tram rail_urban rail rail_electric rail_fast ship" speed="7.84" length="14.56" shape="238.67,221.96 237.97,225.94 236.16,228.62 233.23,230.00 229.18,230.07"/>
    </edge>
    <edge id=":18_1" function="internal">
        <lane id=":18_1_0" index="0" disallow="tram rail_urban rail rail_electric rail_fast ship" speed="7.84" length="14.56" shape="238.67,221.96 237.97,225.94 236.16,228.62 233.23,230.00 229.18,230.07"/>
    </edge>
    <edge id=":18_2" function="internal">
        <lane id=":18_2_0" index="0" disallow="tram rail_urban rail rail_electric rail_fast ship" speed="3.24" length="1.71" shape="238.67,221.96 236.96,221.90"/>
    </edge>
    <edge id=":18_3" function="internal">
        <lane id=":18_3_0" index="0" disallow="tram rail_urban rail rail_electric rail_fast ship" speed="3.65" length="1.44" shape="238.67,221.96 237.83,223.13"/>
    </edge>
    <edge id=":18_16" function="internal">
        <lane id=":18_16_0" index="0" disallow="tram rail_urban rail rail_electric rail_fast ship" speed="3.24" length="1.49" shape="236.96,221.90 235.47,221.86"/>
    </edge>
    <edge id=":18_17" function="internal">